@<TRIPOS>MOLECULE
*****
 31 32 0 0 0
SMALL
GASTEIGER

@<TRIPOS>ATOM
      1 N           1.0229   -0.3985    0.4420 N.3     1  UNL1       -0.3032
      2 C           0.4573    0.7810    1.1311 C.3     1  UNL1        0.0310
      3 C           0.8619    2.1096    0.4719 C.3     1  UNL1       -0.0455
      4 C          -1.0749    0.7123    1.2182 C.ar    1  UNL1       -0.0230
      5 C          -1.8156    0.6586    0.0161 C.ar    1  UNL1       -0.0565
      6 C          -3.2063    0.6912    0.0168 C.ar    1  UNL1       -0.0609
      7 C          -3.8939    0.7739    1.2204 C.ar    1  UNL1       -0.0540
      8 C          -3.2060    0.8223    2.4394 C.ar    1  UNL1       -0.0176
      9 C          -3.9386    0.9105    3.6358 C.ar    1  UNL1       -0.0540
     10 C          -3.2983    0.9669    4.8703 C.ar    1  UNL1       -0.0612
     11 C          -1.9143    0.9395    4.9221 C.ar    1  UNL1       -0.0612
     12 C          -1.1718    0.8543    3.7401 C.ar    1  UNL1       -0.0537
     13 C          -1.7835    0.7919    2.4623 C.ar    1  UNL1       -0.0132
     14 C           2.4940   -0.3941    0.4513 C.3     1  UNL1        0.0522
     15 C           3.0074   -1.6279   -0.2589 C.2     1  UNL1        0.1340
     16 O           3.7077   -1.5830   -1.2664 O.2     1  UNL1       -0.2997
     17 H           0.7013   -0.4013   -0.5249 H       1  UNL1        0.1229
     18 H           0.8831    0.7803    2.1354 H       1  UNL1        0.0507
     19 H           0.5952    2.1333   -0.5905 H       1  UNL1        0.0248
     20 H           1.9391    2.2860    0.5500 H       1  UNL1        0.0248
     21 H           0.3673    2.9553    0.9619 H       1  UNL1        0.0248
     22 H          -1.3057    0.6136   -0.9457 H       1  UNL1        0.0621
     23 H          -3.7551    0.6646   -0.9213 H       1  UNL1        0.0618
     24 H          -4.9827    0.8083    1.1988 H       1  UNL1        0.0624
     25 H          -5.0263    0.9357    3.6149 H       1  UNL1        0.0624
     26 H          -3.8799    1.0317    5.7855 H       1  UNL1        0.0618
     27 H          -1.4030    0.9826    5.8805 H       1  UNL1        0.0618
     28 H          -0.0933    0.8320    3.8526 H       1  UNL1        0.0624
     29 H           2.8856   -0.4101    1.4729 H       1  UNL1        0.0500
     30 H           2.9024    0.4723   -0.0767 H       1  UNL1        0.0500
     31 H           2.7357   -2.5940    0.2015 H       1  UNL1        0.1040
@<TRIPOS>BOND
     1     1     2    1
     2     2     3    1
     3     2     4    1
     4     4     5   ar
     5     5     6   ar
     6     6     7   ar
     7     7     8   ar
     8     8     9   ar
     9     9    10   ar
    10    10    11   ar
    11    11    12   ar
    12    12    13   ar
    13     8    13   ar
    14     4    13   ar
    15     1    14    1
    16    14    15    1
    17    15    16    2
    18     1    17    1
    19     2    18    1
    20     3    19    1
    21     3    20    1
    22     3    21    1
    23     5    22    1
    24     6    23    1
    25     7    24    1
    26     9    25    1
    27    10    26    1
    28    11    27    1
    29    12    28    1
    30    14    29    1
    31    14    30    1
    32    15    31    1
