@<TRIPOS>MOLECULE
*****
 25 25 0 0 0
SMALL
GASTEIGER

@<TRIPOS>ATOM
      1 N           0.9050   -0.0901    0.1004 N.pl3   1  UNL1       -0.3372
      2 C           0.1614   -1.0658   -0.5978 C.ar    1  UNL1        0.0279
      3 C           0.4930   -2.4143   -0.4037 C.ar    1  UNL1       -0.0379
      4 C          -0.2544   -3.4442   -0.9984 C.ar    1  UNL1       -0.0485
      5 C           0.1218   -4.8850   -0.8144 C.3     1  UNL1       -0.0396
      6 C          -1.3766   -3.1171   -1.7674 C.ar    1  UNL1       -0.0558
      7 C          -1.7555   -1.7837   -1.9355 C.ar    1  UNL1       -0.0485
      8 C          -2.9710   -1.4116   -2.7311 C.3     1  UNL1       -0.0396
      9 C          -0.9873   -0.7727   -1.3403 C.ar    1  UNL1       -0.0379
     10 C           0.9381    1.2518   -0.4990 C.3     1  UNL1        0.0646
     11 C           1.7809    2.1769    0.3491 C.2     1  UNL1        0.1372
     12 O           1.3698    3.2450    0.8005 O.2     1  UNL1       -0.2994
     13 H           0.5267   -0.0463    1.0494 H       1  UNL1        0.1465
     14 H           1.3598   -2.6617    0.2050 H       1  UNL1        0.0639
     15 H           1.0391   -4.9925   -0.2272 H       1  UNL1        0.0278
     16 H           0.2906   -5.3572   -1.7881 H       1  UNL1        0.0278
     17 H          -0.6790   -5.4192   -0.2926 H       1  UNL1        0.0278
     18 H          -1.9634   -3.9105   -2.2267 H       1  UNL1        0.0623
     19 H          -3.4884   -2.2956   -3.1162 H       1  UNL1        0.0278
     20 H          -2.6829   -0.7884   -3.5839 H       1  UNL1        0.0278
     21 H          -3.6750   -0.8559   -2.1029 H       1  UNL1        0.0278
     22 H          -1.3274    0.2511   -1.4610 H       1  UNL1        0.0639
     23 H          -0.0603    1.6943   -0.5643 H       1  UNL1        0.0537
     24 H           1.3901    1.2138   -1.4965 H       1  UNL1        0.0537
     25 H           2.8232    1.8584    0.5145 H       1  UNL1        0.1043
@<TRIPOS>BOND
     1     1     2    1
     2     2     3   ar
     3     3     4   ar
     4     4     5    1
     5     4     6   ar
     6     6     7   ar
     7     7     8    1
     8     7     9   ar
     9     2     9   ar
    10     1    10    1
    11    10    11    1
    12    11    12    2
    13     1    13    1
    14     3    14    1
    15     5    15    1
    16     5    16    1
    17     5    17    1
    18     6    18    1
    19     8    19    1
    20     8    20    1
    21     8    21    1
    22     9    22    1
    23    10    23    1
    24    10    24    1
    25    11    25    1
