@<TRIPOS>MOLECULE
*****
 31 32 0 0 0
SMALL
GASTEIGER

@<TRIPOS>ATOM
      1 N           1.1815   -1.1709   -0.6140 N.3     1  UNL1       -0.3032
      2 C           0.6112   -1.1971    0.7522 C.3     1  UNL1        0.0310
      3 C           1.1132   -2.4630    1.4584 C.3     1  UNL1       -0.0455
      4 C          -0.9168   -1.1736    0.7901 C.ar    1  UNL1       -0.0230
      5 C          -1.6268   -1.8427   -0.2313 C.ar    1  UNL1       -0.0565
      6 C          -3.0149   -1.8443   -0.2662 C.ar    1  UNL1       -0.0609
      7 C          -3.7277   -1.2110    0.7431 C.ar    1  UNL1       -0.0540
      8 C          -3.0663   -0.5743    1.8014 C.ar    1  UNL1       -0.0176
      9 C          -3.8232    0.0204    2.8246 C.ar    1  UNL1       -0.0540
     10 C          -3.2059    0.6582    3.8990 C.ar    1  UNL1       -0.0612
     11 C          -1.8215    0.7139    3.9563 C.ar    1  UNL1       -0.0612
     12 C          -1.0540    0.1260    2.9466 C.ar    1  UNL1       -0.0537
     13 C          -1.6473   -0.5388    1.8430 C.ar    1  UNL1       -0.0132
     14 C           0.8896    0.0957   -1.3039 C.3     1  UNL1        0.0522
     15 C           1.5085    0.0391   -2.6832 C.2     1  UNL1        0.1340
     16 O           2.3608    0.8306   -3.0784 O.2     1  UNL1       -0.2997
     17 H           2.1965   -1.2602   -0.5327 H       1  UNL1        0.1229
     18 H           1.0217   -0.3286    1.2774 H       1  UNL1        0.0507
     19 H           0.7285   -3.3735    0.9833 H       1  UNL1        0.0248
     20 H           0.7951   -2.4802    2.5071 H       1  UNL1        0.0248
     21 H           2.2078   -2.5167    1.4483 H       1  UNL1        0.0248
     22 H          -1.0848   -2.3597   -1.0211 H       1  UNL1        0.0621
     23 H          -3.5385   -2.3419   -1.0776 H       1  UNL1        0.0618
     24 H          -4.8146   -1.2280    0.7021 H       1  UNL1        0.0624
     25 H          -4.9104   -0.0157    2.7973 H       1  UNL1        0.0624
     26 H          -3.8069    1.1045    4.6851 H       1  UNL1        0.0618
     27 H          -1.3329    1.2115    4.7903 H       1  UNL1        0.0618
     28 H           0.0254    0.1931    3.0490 H       1  UNL1        0.0624
     29 H           1.3040    0.9516   -0.7615 H       1  UNL1        0.0500
     30 H          -0.1833    0.2503   -1.4500 H       1  UNL1        0.0500
     31 H           1.1324   -0.7640   -3.3420 H       1  UNL1        0.1040
@<TRIPOS>BOND
     1     2     4    1
     2     4     5   ar
     3     5     6   ar
     4     6     7   ar
     5     7     8   ar
     6     8     9   ar
     7     9    10   ar
     8    10    11   ar
     9    11    12   ar
    10    12    13   ar
    11     8    13   ar
    12     4    13   ar
    13     1    14    1
    14    14    15    1
    15    15    16    2
    16     2     3    1
    17     2     1    1
    18     1    17    1
    19     2    18    1
    20     3    19    1
    21     3    20    1
    22     3    21    1
    23     5    22    1
    24     6    23    1
    25     7    24    1
    26     9    25    1
    27    10    26    1
    28    11    27    1
    29    12    28    1
    30    14    29    1
    31    14    30    1
    32    15    31    1
