@<TRIPOS>MOLECULE
*****
 19 19 0 0 0
SMALL
GASTEIGER

@<TRIPOS>ATOM
      1 N           1.1307   -0.2376    0.2070 N.pl3   1  UNL1       -0.3372
      2 C           0.3965    0.6517    1.0076 C.ar    1  UNL1        0.0274
      3 C           0.7971    1.9594    1.3038 C.ar    1  UNL1       -0.0408
      4 C          -0.0354    2.8179    2.0309 C.ar    1  UNL1       -0.0600
      5 C          -1.2878    2.3855    2.4589 C.ar    1  UNL1       -0.0616
      6 C          -1.7135    1.0992    2.1449 C.ar    1  UNL1       -0.0600
      7 C          -0.8840    0.2495    1.4119 C.ar    1  UNL1       -0.0408
      8 C           2.5872   -0.0939    0.1800 C.3     1  UNL1        0.0646
      9 C           3.1732   -1.1876   -0.6878 C.2     1  UNL1        0.1372
     10 O           3.5241   -1.0169   -1.8520 O.2     1  UNL1       -0.2994
     11 H           0.7547   -0.1868   -0.7437 H       1  UNL1        0.1465
     12 H           1.7506    2.3492    0.9638 H       1  UNL1        0.0636
     13 H           0.2924    3.8303    2.2526 H       1  UNL1        0.0618
     14 H          -1.9333    3.0523    3.0239 H       1  UNL1        0.0618
     15 H          -2.6949    0.7553    2.4648 H       1  UNL1        0.0618
     16 H          -1.2343   -0.7502    1.1650 H       1  UNL1        0.0636
     17 H           3.0127   -0.2018    1.1847 H       1  UNL1        0.0537
     18 H           2.8969    0.8676   -0.2424 H       1  UNL1        0.0537
     19 H           3.2166   -2.1876   -0.2241 H       1  UNL1        0.1043
@<TRIPOS>BOND
     1     1     2    1
     2     2     3   ar
     3     3     4   ar
     4     4     5   ar
     5     5     6   ar
     6     6     7   ar
     7     2     7   ar
     8     1     8    1
     9     8     9    1
    10     9    10    2
    11     1    11    1
    12     3    12    1
    13     4    13    1
    14     5    14    1
    15     6    15    1
    16     7    16    1
    17     8    17    1
    18     8    18    1
    19     9    19    1
