@<TRIPOS>MOLECULE
*****
 25 25 0 0 0
SMALL
GASTEIGER

@<TRIPOS>ATOM
      1 N           0.8734   -0.0068   -0.0509 N.pl3   1  UNL1       -0.3372
      2 C           0.2057    1.2121    0.1943 C.ar    1  UNL1        0.0279
      3 C           0.5773    2.3347   -0.5582 C.ar    1  UNL1       -0.0379
      4 C          -0.0916    3.5612   -0.4205 C.ar    1  UNL1       -0.0485
      5 C           0.3343    4.7706   -1.1994 C.3     1  UNL1       -0.0396
      6 C          -1.1762    3.6530    0.4590 C.ar    1  UNL1       -0.0558
      7 C          -1.5968    2.5358    1.1836 C.ar    1  UNL1       -0.0485
      8 C          -2.7739    2.6021    2.1106 C.3     1  UNL1       -0.0396
      9 C          -0.9084    1.3238    1.0337 C.ar    1  UNL1       -0.0379
     10 C           0.8900   -0.9660    1.0630 C.3     1  UNL1        0.0646
     11 C           1.6640   -2.2035    0.6701 C.2     1  UNL1        0.1372
     12 O           1.1989   -3.3409    0.7269 O.2     1  UNL1       -0.2994
     13 H           0.4403   -0.4275   -0.8764 H       1  UNL1        0.1465
     14 H           1.4162    2.2529   -1.2465 H       1  UNL1        0.0639
     15 H           1.2015    4.5599   -1.8334 H       1  UNL1        0.0278
     16 H           0.6085    5.5807   -0.5151 H       1  UNL1        0.0278
     17 H          -0.4819    5.1099   -1.8457 H       1  UNL1        0.0278
     18 H          -1.7012    4.5999    0.5679 H       1  UNL1        0.0623
     19 H          -3.2188    3.6019    2.1279 H       1  UNL1        0.0278
     20 H          -2.4612    2.3526    3.1299 H       1  UNL1        0.0278
     21 H          -3.5447    1.8937    1.7893 H       1  UNL1        0.0278
     22 H          -1.2808    0.4656    1.5843 H       1  UNL1        0.0639
     23 H          -0.1186   -1.2899    1.3372 H       1  UNL1        0.0537
     24 H           1.3869   -0.5288    1.9364 H       1  UNL1        0.0537
     25 H           2.7084   -2.0356    0.3600 H       1  UNL1        0.1043
@<TRIPOS>BOND
     1     1     2    1
     2     2     3   ar
     3     3     4   ar
     4     4     5    1
     5     4     6   ar
     6     6     7   ar
     7     7     8    1
     8     7     9   ar
     9     2     9   ar
    10     1    10    1
    11    10    11    1
    12    11    12    2
    13     1    13    1
    14     3    14    1
    15     5    15    1
    16     5    16    1
    17     5    17    1
    18     6    18    1
    19     8    19    1
    20     8    20    1
    21     8    21    1
    22     9    22    1
    23    10    23    1
    24    10    24    1
    25    11    25    1
