@<TRIPOS>MOLECULE
*****
 31 32 0 0 0
SMALL
GASTEIGER

@<TRIPOS>ATOM
      1 N           1.0014    0.4633   -0.1434 N.3     1  UNL1       -0.3032
      2 C           0.4995    0.4770    1.2433 C.3     1  UNL1        0.0310
      3 C           1.0440    1.6694    2.0538 C.3     1  UNL1       -0.0455
      4 C          -1.0355    0.4126    1.2414 C.ar    1  UNL1       -0.0230
      5 C          -1.7834    1.6088    1.2122 C.ar    1  UNL1       -0.0565
      6 C          -3.1741    1.5994    1.2567 C.ar    1  UNL1       -0.0609
      7 C          -3.8562    0.3904    1.3052 C.ar    1  UNL1       -0.0540
      8 C          -3.1616   -0.8247    1.2939 C.ar    1  UNL1       -0.0176
      9 C          -3.8834   -2.0313    1.3157 C.ar    1  UNL1       -0.0540
     10 C          -3.2305   -3.2589    1.2950 C.ar    1  UNL1       -0.0612
     11 C          -1.8456   -3.2972    1.2545 C.ar    1  UNL1       -0.0612
     12 C          -1.1133   -2.1056    1.2327 C.ar    1  UNL1       -0.0537
     13 C          -1.7391   -0.8360    1.2567 C.ar    1  UNL1       -0.0132
     14 C           2.4641    0.3658   -0.2166 C.3     1  UNL1        0.0522
     15 C           2.9006    0.3527   -1.6657 C.2     1  UNL1        0.1340
     16 O           3.6626    1.1857   -2.1489 O.2     1  UNL1       -0.2997
     17 H           0.6915    1.3184   -0.6081 H       1  UNL1        0.1229
     18 H           0.8735   -0.4101    1.7658 H       1  UNL1        0.0507
     19 H           0.8726    2.6262    1.5488 H       1  UNL1        0.0248
     20 H           2.1227    1.5788    2.2190 H       1  UNL1        0.0248
     21 H           0.5774    1.7151    3.0439 H       1  UNL1        0.0248
     22 H          -1.2905    2.5770    1.1635 H       1  UNL1        0.0621
     23 H          -3.7280    2.5348    1.2542 H       1  UNL1        0.0618
     24 H          -4.9444    0.4045    1.3431 H       1  UNL1        0.0624
     25 H          -4.9718   -2.0192    1.3417 H       1  UNL1        0.0624
     26 H          -3.8043   -4.1818    1.3044 H       1  UNL1        0.0618
     27 H          -1.3261   -4.2520    1.2317 H       1  UNL1        0.0618
     28 H          -0.0319   -2.1934    1.1798 H       1  UNL1        0.0624
     29 H           2.8195   -0.5611    0.2447 H       1  UNL1        0.0500
     30 H           2.9566    1.2186    0.2584 H       1  UNL1        0.0500
     31 H           2.5191   -0.4849   -2.2761 H       1  UNL1        0.1040
@<TRIPOS>BOND
     1     1     2    1
     2     2     3    1
     3     2     4    1
     4     4     5   ar
     5     5     6   ar
     6     6     7   ar
     7     7     8   ar
     8     8     9   ar
     9     9    10   ar
    10    10    11   ar
    11    11    12   ar
    12    12    13   ar
    13     8    13   ar
    14     4    13   ar
    15     1    14    1
    16    14    15    1
    17    15    16    2
    18     1    17    1
    19     2    18    1
    20     3    19    1
    21     3    20    1
    22     3    21    1
    23     5    22    1
    24     6    23    1
    25     7    24    1
    26     9    25    1
    27    10    26    1
    28    11    27    1
    29    12    28    1
    30    14    29    1
    31    14    30    1
    32    15    31    1
