@<TRIPOS>MOLECULE
*****
 25 25 0 0 0
SMALL
GASTEIGER

@<TRIPOS>ATOM
      1 N           1.1274    0.2223    0.0284 N.pl3   1  UNL1       -0.3368
      2 C           0.4523   -0.1273    1.2113 C.ar    1  UNL1        0.0333
      3 C           0.7146    0.4492    2.4804 C.ar    1  UNL1       -0.0294
      4 C           1.7444    1.5134    2.7512 C.3     1  UNL1       -0.0380
      5 C          -0.0105    0.0212    3.6135 C.ar    1  UNL1       -0.0571
      6 C          -1.0427   -0.8985    3.5099 C.ar    1  UNL1       -0.0611
      7 C          -1.3755   -1.4029    2.2640 C.ar    1  UNL1       -0.0571
      8 C          -0.6535   -1.0235    1.1159 C.ar    1  UNL1       -0.0294
      9 C          -1.1022   -1.6137   -0.1993 C.3     1  UNL1       -0.0380
     10 C           2.5494    0.5688    0.0414 C.3     1  UNL1        0.0646
     11 C           3.2216    0.1887   -1.2631 C.2     1  UNL1        0.1372
     12 O           2.6886   -0.4733   -2.1532 O.2     1  UNL1       -0.2994
     13 H           0.9434   -0.4308   -0.7362 H       1  UNL1        0.1465
     14 H           1.8245    2.2260    1.9296 H       1  UNL1        0.0278
     15 H           2.7160    1.0559    2.9622 H       1  UNL1        0.0278
     16 H           1.4599    2.1183    3.6201 H       1  UNL1        0.0278
     17 H           0.2211    0.4318    4.5948 H       1  UNL1        0.0621
     18 H          -1.5990   -1.1999    4.3925 H       1  UNL1        0.0618
     19 H          -2.2097   -2.0965    2.1861 H       1  UNL1        0.0621
     20 H          -1.9999   -2.2317   -0.0786 H       1  UNL1        0.0278
     21 H          -0.3202   -2.2555   -0.6162 H       1  UNL1        0.0278
     22 H          -1.3542   -0.8202   -0.9104 H       1  UNL1        0.0278
     23 H           3.0963    0.0501    0.8341 H       1  UNL1        0.0537
     24 H           2.6691    1.6516    0.1298 H       1  UNL1        0.0537
     25 H           4.2675    0.5280   -1.3612 H       1  UNL1        0.1043
@<TRIPOS>BOND
     1     1     2    1
     2     2     3   ar
     3     3     4    1
     4     3     5   ar
     5     5     6   ar
     6     6     7   ar
     7     7     8   ar
     8     2     8   ar
     9     8     9    1
    10     1    10    1
    11    10    11    1
    12    11    12    2
    13     1    13    1
    14     4    14    1
    15     4    15    1
    16     4    16    1
    17     5    17    1
    18     6    18    1
    19     7    19    1
    20     9    20    1
    21     9    21    1
    22     9    22    1
    23    10    23    1
    24    10    24    1
    25    11    25    1
