@<TRIPOS>MOLECULE
*****
 31 32 0 0 0
SMALL
GASTEIGER

@<TRIPOS>ATOM
      1 N           0.9726    0.5693   -0.4929 N.3     1  UNL1       -0.3032
      2 C           0.4652    1.2694    0.7058 C.3     1  UNL1        0.0310
      3 C           1.0315    2.7036    0.7702 C.3     1  UNL1       -0.0455
      4 C          -1.0773    1.2062    0.7492 C.ar    1  UNL1       -0.0230
      5 C          -1.8377    2.3941    0.6726 C.ar    1  UNL1       -0.0565
      6 C          -3.2285    2.3822    0.7266 C.ar    1  UNL1       -0.0609
      7 C          -3.9054    1.1773    0.8356 C.ar    1  UNL1       -0.0540
      8 C          -3.2039   -0.0296    0.9093 C.ar    1  UNL1       -0.0176
      9 C          -3.9276   -1.2291    1.0083 C.ar    1  UNL1       -0.0540
     10 C          -3.2760   -2.4550    1.0957 C.ar    1  UNL1       -0.0612
     11 C          -1.8896   -2.4900    1.0986 C.ar    1  UNL1       -0.0612
     12 C          -1.1561   -1.3043    0.9988 C.ar    1  UNL1       -0.0537
     13 C          -1.7805   -0.0384    0.8850 C.ar    1  UNL1       -0.0132
     14 C           2.4336    0.4435   -0.5209 C.3     1  UNL1        0.0522
     15 C           2.8453   -0.3496   -1.7445 C.2     1  UNL1        0.1340
     16 O           3.5657    0.1046   -2.6323 O.2     1  UNL1       -0.2997
     17 H           0.6541    1.0717   -1.3225 H       1  UNL1        0.1229
     18 H           0.8188    0.7510    1.6079 H       1  UNL1        0.0507
     19 H           0.7917    3.2689   -0.1393 H       1  UNL1        0.0248
     20 H           2.1195    2.7128    0.8848 H       1  UNL1        0.0248
     21 H           0.6340    3.2514    1.6315 H       1  UNL1        0.0248
     22 H          -1.3668    3.3680    0.5759 H       1  UNL1        0.0621
     23 H          -3.7833    3.3156    0.6801 H       1  UNL1        0.0618
     24 H          -4.9927    1.1900    0.8662 H       1  UNL1        0.0624
     25 H          -5.0160   -1.2167    1.0112 H       1  UNL1        0.0624
     26 H          -3.8521   -3.3740    1.1624 H       1  UNL1        0.0618
     27 H          -1.3728   -3.4453    1.1740 H       1  UNL1        0.0618
     28 H          -0.0724   -1.3853    1.0009 H       1  UNL1        0.0624
     29 H           2.8035   -0.0943    0.3578 H       1  UNL1        0.0500
     30 H           2.9335    1.4130   -0.5843 H       1  UNL1        0.0500
     31 H           2.4813   -1.3886   -1.7875 H       1  UNL1        0.1040
@<TRIPOS>BOND
     1     1     2    1
     2     2     3    1
     3     2     4    1
     4     4     5   ar
     5     5     6   ar
     6     6     7   ar
     7     7     8   ar
     8     8     9   ar
     9     9    10   ar
    10    10    11   ar
    11    11    12   ar
    12    12    13   ar
    13     8    13   ar
    14     4    13   ar
    15     1    14    1
    16    14    15    1
    17    15    16    2
    18     1    17    1
    19     2    18    1
    20     3    19    1
    21     3    20    1
    22     3    21    1
    23     5    22    1
    24     6    23    1
    25     7    24    1
    26     9    25    1
    27    10    26    1
    28    11    27    1
    29    12    28    1
    30    14    29    1
    31    14    30    1
    32    15    31    1
