@<TRIPOS>MOLECULE
*****
 19 19 0 0 0
SMALL
GASTEIGER

@<TRIPOS>ATOM
      1 N           1.0001    0.0276    0.0119 N.pl3   1  UNL1       -0.3372
      2 C           0.3100    0.2503    1.2192 C.ar    1  UNL1        0.0276
      3 C           0.7052    1.3407    2.0096 C.ar    1  UNL1       -0.0381
      4 C           0.0172    1.6689    3.1819 C.ar    1  UNL1       -0.0247
      5 C          -1.0946    0.9260    3.5501 C.ar    1  UNL1        0.1235
      6 F          -1.7618    1.2369    4.6691 F       1  UNL1       -0.2055
      7 C          -1.5354   -0.1292    2.7632 C.ar    1  UNL1       -0.0247
      8 C          -0.8419   -0.4571    1.5958 C.ar    1  UNL1       -0.0381
      9 C           1.0004   -1.3509   -0.4976 C.3     1  UNL1        0.0646
     10 C           1.7977   -1.4264   -1.7783 C.2     1  UNL1        0.1372
     11 O           1.3440   -1.8531   -2.8373 O.2     1  UNL1       -0.2994
     12 H           0.6131    0.6662   -0.6880 H       1  UNL1        0.1465
     13 H           1.5722    1.9316    1.7209 H       1  UNL1        0.0637
     14 H           0.3403    2.4983    3.8031 H       1  UNL1        0.0647
     15 H          -2.4223   -0.6833    3.0527 H       1  UNL1        0.0647
     16 H          -1.2359   -1.2642    0.9885 H       1  UNL1        0.0637
     17 H          -0.0112   -1.7024   -0.7222 H       1  UNL1        0.0537
     18 H           1.4724   -2.0244    0.2265 H       1  UNL1        0.0537
     19 H           2.8495   -1.1020   -1.7070 H       1  UNL1        0.1043
@<TRIPOS>BOND
     1     1     2    1
     2     2     3   ar
     3     3     4   ar
     4     4     5   ar
     5     5     6    1
     6     5     7   ar
     7     7     8   ar
     8     2     8   ar
     9     1     9    1
    10     9    10    1
    11    10    11    2
    12     1    12    1
    13     3    13    1
    14     4    14    1
    15     7    15    1
    16     8    16    1
    17     9    17    1
    18     9    18    1
    19    10    19    1
