@<TRIPOS>MOLECULE
*****
 31 32 0 0 0
SMALL
GASTEIGER

@<TRIPOS>ATOM
      1 N           1.1720   -0.6075   -1.6746 N.3     1  UNL1       -0.3032
      2 C           0.5994   -1.3526   -0.5343 C.3     1  UNL1        0.0310
      3 C           1.0281   -0.7753    0.8298 C.3     1  UNL1       -0.0455
      4 C          -0.9366   -1.3799   -0.6161 C.ar    1  UNL1       -0.0230
      5 C          -1.6204   -0.1423   -0.5727 C.ar    1  UNL1       -0.0565
      6 C          -3.0069   -0.0774   -0.5298 C.ar    1  UNL1       -0.0609
      7 C          -3.7504   -1.2486   -0.5063 C.ar    1  UNL1       -0.0540
      8 C          -3.1231   -2.4984   -0.5626 C.ar    1  UNL1       -0.0176
      9 C          -3.9188   -3.6560   -0.5313 C.ar    1  UNL1       -0.0540
     10 C          -3.3502   -4.9220   -0.6176 C.ar    1  UNL1       -0.0612
     11 C          -1.9743   -5.0421   -0.7504 C.ar    1  UNL1       -0.0612
     12 C          -1.1668   -3.8975   -0.7649 C.ar    1  UNL1       -0.0537
     13 C          -1.7049   -2.5916   -0.6501 C.ar    1  UNL1       -0.0132
     14 C           2.6377   -0.6763   -1.7299 C.3     1  UNL1        0.0522
     15 C           3.1213    0.0843   -2.9475 C.2     1  UNL1        0.1340
     16 O           3.8656    1.0587   -2.8851 O.2     1  UNL1       -0.2997
     17 H           0.8934    0.3707   -1.6017 H       1  UNL1        0.1229
     18 H           0.9923   -2.3709   -0.5841 H       1  UNL1        0.0507
     19 H           0.6696    0.2493    0.9791 H       1  UNL1        0.0248
     20 H           2.1156   -0.7609    0.9494 H       1  UNL1        0.0248
     21 H           0.6316   -1.3879    1.6473 H       1  UNL1        0.0248
     22 H          -1.0660    0.7925   -0.5554 H       1  UNL1        0.0621
     23 H          -3.5088    0.8864   -0.4965 H       1  UNL1        0.0618
     24 H          -4.8351   -1.1770   -0.4518 H       1  UNL1        0.0624
     25 H          -5.0006   -3.5784   -0.4381 H       1  UNL1        0.0624
     26 H          -3.9806   -5.8065   -0.5922 H       1  UNL1        0.0618
     27 H          -1.5250   -6.0264   -0.8490 H       1  UNL1        0.0618
     28 H          -0.1004   -4.0565   -0.8915 H       1  UNL1        0.0624
     29 H           2.9856   -1.7100   -1.8238 H       1  UNL1        0.0500
     30 H           3.1058   -0.2165   -0.8548 H       1  UNL1        0.0500
     31 H           2.7783   -0.3045   -3.9217 H       1  UNL1        0.1040
@<TRIPOS>BOND
     1     1     2    1
     2     2     3    1
     3     2     4    1
     4     4     5   ar
     5     5     6   ar
     6     6     7   ar
     7     7     8   ar
     8     8     9   ar
     9     9    10   ar
    10    10    11   ar
    11    11    12   ar
    12    12    13   ar
    13     8    13   ar
    14     4    13   ar
    15     1    14    1
    16    14    15    1
    17    15    16    2
    18     1    17    1
    19     2    18    1
    20     3    19    1
    21     3    20    1
    22     3    21    1
    23     5    22    1
    24     6    23    1
    25     7    24    1
    26     9    25    1
    27    10    26    1
    28    11    27    1
    29    12    28    1
    30    14    29    1
    31    14    30    1
    32    15    31    1
