@<TRIPOS>MOLECULE
*****
 25 25 0 0 0
SMALL
GASTEIGER

@<TRIPOS>ATOM
      1 N           1.1232    0.1329   -0.1476 N.3     1  UNL1       -0.3032
      2 C           0.6211    1.3609    0.4971 C.3     1  UNL1        0.0304
      3 C           1.0915    2.6415   -0.2098 C.3     1  UNL1       -0.0455
      4 C          -0.9042    1.3404    0.5792 C.ar    1  UNL1       -0.0307
      5 C          -1.5467    1.3679    1.8285 C.ar    1  UNL1       -0.0571
      6 C          -2.9426    1.3815    1.9213 C.ar    1  UNL1       -0.0615
      7 C          -3.7201    1.3652    0.7666 C.ar    1  UNL1       -0.0617
      8 C          -3.1029    1.3347   -0.4808 C.ar    1  UNL1       -0.0615
      9 C          -1.7075    1.3233   -0.5759 C.ar    1  UNL1       -0.0571
     10 C           2.5889    0.0419   -0.1310 C.3     1  UNL1        0.0522
     11 C           3.0183   -1.2431   -0.8066 C.2     1  UNL1        0.1340
     12 O           3.7195   -1.2763   -1.8136 O.2     1  UNL1       -0.2997
     13 H           0.8020    0.1205   -1.1159 H       1  UNL1        0.1229
     14 H           1.0101    1.3842    1.5236 H       1  UNL1        0.0507
     15 H           0.7886    2.6612   -1.2629 H       1  UNL1        0.0248
     16 H           2.1807    2.7455   -0.1762 H       1  UNL1        0.0248
     17 H           0.6759    3.5308    0.2754 H       1  UNL1        0.0248
     18 H          -0.9630    1.3840    2.7467 H       1  UNL1        0.0621
     19 H          -3.4225    1.4064    2.8967 H       1  UNL1        0.0618
     20 H          -4.8042    1.3750    0.8384 H       1  UNL1        0.0618
     21 H          -3.7070    1.3223   -1.3846 H       1  UNL1        0.0618
     22 H          -1.2531    1.3055   -1.5625 H       1  UNL1        0.0621
     23 H           2.9741    0.0249    0.8935 H       1  UNL1        0.0500
     24 H           3.0577    0.8638   -0.6793 H       1  UNL1        0.0500
     25 H           2.6782   -2.1758   -0.3230 H       1  UNL1        0.1040
@<TRIPOS>BOND
     1     1     2    1
     2     2     3    1
     3     2     4    1
     4     4     5   ar
     5     5     6   ar
     6     6     7   ar
     7     7     8   ar
     8     8     9   ar
     9     4     9   ar
    10     1    10    1
    11    10    11    1
    12    11    12    2
    13     1    13    1
    14     2    14    1
    15     3    15    1
    16     3    16    1
    17     3    17    1
    18     5    18    1
    19     6    19    1
    20     7    20    1
    21     8    21    1
    22     9    22    1
    23    10    23    1
    24    10    24    1
    25    11    25    1
