@<TRIPOS>MOLECULE
*****
 25 25 0 0 0
SMALL
GASTEIGER

@<TRIPOS>ATOM
      1 N           1.0613    0.0415   -0.0149 N.3     1  UNL1       -0.3032
      2 C           0.5394   -0.8283    1.0517 C.3     1  UNL1        0.0304
      3 C           1.1234   -0.4954    2.4347 C.3     1  UNL1       -0.0455
      4 C          -0.9854   -0.7692    1.0460 C.ar    1  UNL1       -0.0307
      5 C          -1.7118   -1.6822    0.2624 C.ar    1  UNL1       -0.0571
      6 C          -3.1094   -1.6622    0.2465 C.ar    1  UNL1       -0.0615
      7 C          -3.8035   -0.7238    1.0060 C.ar    1  UNL1       -0.0617
      8 C          -3.1009    0.2040    1.7699 C.ar    1  UNL1       -0.0615
      9 C          -1.7037    0.1877    1.7827 C.ar    1  UNL1       -0.0571
     10 C           2.5175   -0.0373   -0.1631 C.3     1  UNL1        0.0522
     11 C           2.9419    0.8530   -1.3116 C.2     1  UNL1        0.1340
     12 O           3.7206    1.7961   -1.1841 O.2     1  UNL1       -0.2997
     13 H           0.7924    1.0042    0.1933 H       1  UNL1        0.1229
     14 H           0.8229   -1.8661    0.8290 H       1  UNL1        0.0507
     15 H           1.0443    0.5733    2.6653 H       1  UNL1        0.0248
     16 H           2.1826   -0.7664    2.4956 H       1  UNL1        0.0248
     17 H           0.6051   -1.0492    3.2257 H       1  UNL1        0.0248
     18 H          -1.1887   -2.4185   -0.3444 H       1  UNL1        0.0621
     19 H          -3.6561   -2.3796   -0.3600 H       1  UNL1        0.0618
     20 H          -4.8901   -0.7106    0.9981 H       1  UNL1        0.0618
     21 H          -3.6390    0.9421    2.3591 H       1  UNL1        0.0618
     22 H          -1.1877    0.9325    2.3826 H       1  UNL1        0.0621
     23 H           2.8376   -1.0574   -0.3994 H       1  UNL1        0.0500
     24 H           3.0405    0.3072    0.7340 H       1  UNL1        0.0500
     25 H           2.5282    0.5911   -2.2998 H       1  UNL1        0.1040
@<TRIPOS>BOND
     1     1     2    1
     2     2     3    1
     3     2     4    1
     4     4     5   ar
     5     5     6   ar
     6     6     7   ar
     7     7     8   ar
     8     8     9   ar
     9     4     9   ar
    10     1    10    1
    11    10    11    1
    12    11    12    2
    13     1    13    1
    14     2    14    1
    15     3    15    1
    16     3    16    1
    17     3    17    1
    18     5    18    1
    19     6    19    1
    20     7    20    1
    21     8    21    1
    22     9    22    1
    23    10    23    1
    24    10    24    1
    25    11    25    1
