@<TRIPOS>MOLECULE
*****
 25 25 0 0 0
SMALL
GASTEIGER

@<TRIPOS>ATOM
      1 N           1.1852   -0.0975   -0.1563 N.3     1  UNL1       -0.3032
      2 C           0.6097    1.0391   -0.8946 C.3     1  UNL1        0.0304
      3 C           1.0147    1.0738   -2.3749 C.3     1  UNL1       -0.0455
      4 C          -0.9117    1.0179   -0.7851 C.ar    1  UNL1       -0.0307
      5 C          -1.5984    2.1168   -0.2448 C.ar    1  UNL1       -0.0571
      6 C          -2.9940    2.1207   -0.1700 C.ar    1  UNL1       -0.0615
      7 C          -3.7230    1.0259   -0.6297 C.ar    1  UNL1       -0.0617
      8 C          -3.0586   -0.0735   -1.1662 C.ar    1  UNL1       -0.0615
      9 C          -1.6648   -0.0767   -1.2465 C.ar    1  UNL1       -0.0571
     10 C           2.6494   -0.0882   -0.1216 C.3     1  UNL1        0.0522
     11 C           3.1188   -1.2709    0.7002 C.2     1  UNL1        0.1340
     12 O           3.8137   -2.1773    0.2471 O.2     1  UNL1       -0.2997
     13 H           0.8715   -0.9645   -0.5926 H       1  UNL1        0.1229
     14 H           0.9704    1.9641   -0.4244 H       1  UNL1        0.0507
     15 H           0.7674    0.1368   -2.8870 H       1  UNL1        0.0248
     16 H           2.0883    1.2485   -2.4949 H       1  UNL1        0.0248
     17 H           0.4978    1.8844   -2.9021 H       1  UNL1        0.0248
     18 H          -1.0515    2.9839    0.1193 H       1  UNL1        0.0621
     19 H          -3.5134    2.9797    0.2468 H       1  UNL1        0.0618
     20 H          -4.8080    1.0289   -0.5697 H       1  UNL1        0.0618
     21 H          -3.6238   -0.9296   -1.5246 H       1  UNL1        0.0618
     22 H          -1.1704   -0.9440   -1.6766 H       1  UNL1        0.0621
     23 H           3.0331    0.8200    0.3538 H       1  UNL1        0.0500
     24 H           3.0837   -0.1856   -1.1213 H       1  UNL1        0.0500
     25 H           2.8072   -1.2717    1.7584 H       1  UNL1        0.1040
@<TRIPOS>BOND
     1     1     2    1
     2     2     3    1
     3     2     4    1
     4     4     5   ar
     5     5     6   ar
     6     6     7   ar
     7     7     8   ar
     8     8     9   ar
     9     4     9   ar
    10     1    10    1
    11    10    11    1
    12    11    12    2
    13     1    13    1
    14     2    14    1
    15     3    15    1
    16     3    16    1
    17     3    17    1
    18     5    18    1
    19     6    19    1
    20     7    20    1
    21     8    21    1
    22     9    22    1
    23    10    23    1
    24    10    24    1
    25    11    25    1
