@<TRIPOS>MOLECULE
*****
 25 25 0 0 0
SMALL
GASTEIGER

@<TRIPOS>ATOM
      1 N           1.0796    0.1652   -0.0076 N.3     1  UNL1       -0.3032
      2 C           0.5566   -0.6781    1.0823 C.3     1  UNL1        0.0304
      3 C           1.0260   -0.2334    2.4765 C.3     1  UNL1       -0.0455
      4 C          -0.9694   -0.7125    1.0677 C.ar    1  UNL1       -0.0307
      5 C          -1.6476   -1.9339    0.8995 C.ar    1  UNL1       -0.0571
      6 C          -3.0380   -1.9986    0.9923 C.ar    1  UNL1       -0.0615
      7 C          -3.7763   -0.8454    1.2462 C.ar    1  UNL1       -0.0617
      8 C          -3.1259    0.3767    1.3940 C.ar    1  UNL1       -0.0615
      9 C          -1.7335    0.4444    1.3005 C.ar    1  UNL1       -0.0571
     10 C           2.5475    0.1611   -0.0679 C.3     1  UNL1        0.0522
     11 C           3.0073    1.0370   -1.2115 C.2     1  UNL1        0.1340
     12 O           3.7215    2.0254   -1.0621 O.2     1  UNL1       -0.2997
     13 H           0.7556    1.1215    0.1333 H       1  UNL1        0.1229
     14 H           0.9192   -1.7017    0.9176 H       1  UNL1        0.0507
     15 H           0.7902    0.8188    2.6697 H       1  UNL1        0.0248
     16 H           2.1052   -0.3640    2.6012 H       1  UNL1        0.0248
     17 H           0.5424   -0.8293    3.2589 H       1  UNL1        0.0248
     18 H          -1.0884   -2.8489    0.7140 H       1  UNL1        0.0621
     19 H          -3.5451   -2.9525    0.8782 H       1  UNL1        0.0618
     20 H          -4.8587   -0.8996    1.3345 H       1  UNL1        0.0618
     21 H          -3.7001    1.2774    1.5942 H       1  UNL1        0.0618
     22 H          -1.2490    1.4078    1.4375 H       1  UNL1        0.0621
     23 H           2.9327   -0.8491   -0.2452 H       1  UNL1        0.0500
     24 H           2.9949    0.5622    0.8474 H       1  UNL1        0.0500
     25 H           2.6804    0.7200   -2.2173 H       1  UNL1        0.1040
@<TRIPOS>BOND
     1     1     2    1
     2     2     3    1
     3     2     4    1
     4     4     5   ar
     5     5     6   ar
     6     6     7   ar
     7     7     8   ar
     8     8     9   ar
     9     4     9   ar
    10     1    10    1
    11    10    11    1
    12    11    12    2
    13     1    13    1
    14     2    14    1
    15     3    15    1
    16     3    16    1
    17     3    17    1
    18     5    18    1
    19     6    19    1
    20     7    20    1
    21     8    21    1
    22     9    22    1
    23    10    23    1
    24    10    24    1
    25    11    25    1
