@<TRIPOS>MOLECULE
*****
 25 25 0 0 0
SMALL
GASTEIGER

@<TRIPOS>ATOM
      1 N           1.1415    0.0724   -0.0750 N.3     1  UNL1       -0.3032
      2 C           0.6374    1.2617    0.6408 C.3     1  UNL1        0.0304
      3 C           1.1220    2.5792    0.0152 C.3     1  UNL1       -0.0455
      4 C          -0.8899    1.2448    0.7159 C.ar    1  UNL1       -0.0307
      5 C          -1.5373    1.2038    1.9642 C.ar    1  UNL1       -0.0571
      6 C          -2.9349    1.2223    2.0523 C.ar    1  UNL1       -0.0615
      7 C          -3.7085    1.2789    0.8981 C.ar    1  UNL1       -0.0617
      8 C          -3.0870    1.3176   -0.3466 C.ar    1  UNL1       -0.0615
      9 C          -1.6896    1.3018   -0.4380 C.ar    1  UNL1       -0.0571
     10 C           2.6088   -0.0179   -0.0562 C.3     1  UNL1        0.0522
     11 C           3.0515   -1.2560   -0.8065 C.2     1  UNL1        0.1340
     12 O           3.7756   -1.2214   -1.7975 O.2     1  UNL1       -0.2997
     13 H           0.8245    0.1185   -1.0432 H       1  UNL1        0.1229
     14 H           1.0215    1.2200    1.6689 H       1  UNL1        0.0507
     15 H           0.8159    2.6701   -1.0331 H       1  UNL1        0.0248
     16 H           2.2129    2.6677    0.0503 H       1  UNL1        0.0248
     17 H           0.7225    3.4414    0.5589 H       1  UNL1        0.0248
     18 H          -0.9572    1.1634    2.8826 H       1  UNL1        0.0621
     19 H          -3.4164    1.1931    3.0275 H       1  UNL1        0.0618
     20 H          -4.7939    1.2943    0.9683 H       1  UNL1        0.0618
     21 H          -3.6893    1.3651   -1.2511 H       1  UNL1        0.0618
     22 H          -1.2349    1.3392   -1.4237 H       1  UNL1        0.0621
     23 H           2.9880   -0.0955    0.9686 H       1  UNL1        0.0500
     24 H           3.0802    0.8345   -0.5490 H       1  UNL1        0.0500
     25 H           2.7073   -2.2190   -0.3903 H       1  UNL1        0.1040
@<TRIPOS>BOND
     1     1     2    1
     2     2     3    1
     3     2     4    1
     4     4     5   ar
     5     5     6   ar
     6     6     7   ar
     7     7     8   ar
     8     8     9   ar
     9     4     9   ar
    10     1    10    1
    11    10    11    1
    12    11    12    2
    13     1    13    1
    14     2    14    1
    15     3    15    1
    16     3    16    1
    17     3    17    1
    18     5    18    1
    19     6    19    1
    20     7    20    1
    21     8    21    1
    22     9    22    1
    23    10    23    1
    24    10    24    1
    25    11    25    1
