@<TRIPOS>MOLECULE
*****
 25 25 0 0 0
SMALL
GASTEIGER

@<TRIPOS>ATOM
      1 N           1.1420    0.0202    0.1612 N.3     1  UNL1       -0.3032
      2 C           0.5959   -1.3469    0.1575 C.3     1  UNL1        0.0304
      3 C           1.1095   -2.2089    1.3197 C.3     1  UNL1       -0.0455
      4 C          -0.9278   -1.2933    0.1868 C.ar    1  UNL1       -0.0307
      5 C          -1.6746   -1.8528   -0.8624 C.ar    1  UNL1       -0.0571
      6 C          -3.0717   -1.8212   -0.8408 C.ar    1  UNL1       -0.0615
      7 C          -3.7418   -1.2270    0.2263 C.ar    1  UNL1       -0.0617
      8 C          -3.0173   -0.6671    1.2749 C.ar    1  UNL1       -0.0615
      9 C          -1.6217   -0.7027    1.2577 C.ar    1  UNL1       -0.0571
     10 C           2.5986    0.0660    0.0210 C.3     1  UNL1        0.0522
     11 C           3.0329    1.5171   -0.0074 C.2     1  UNL1        0.1340
     12 O           3.7937    2.0126    0.8190 O.2     1  UNL1       -0.2997
     13 H           0.8795    0.4751    1.0356 H       1  UNL1        0.1229
     14 H           0.8994   -1.8320   -0.7794 H       1  UNL1        0.0507
     15 H           0.9627   -1.7173    2.2877 H       1  UNL1        0.0248
     16 H           2.1769   -2.4271    1.2131 H       1  UNL1        0.0248
     17 H           0.5865   -3.1719    1.3551 H       1  UNL1        0.0248
     18 H          -1.1737   -2.3199   -1.7073 H       1  UNL1        0.0621
     19 H          -3.6374   -2.2594   -1.6590 H       1  UNL1        0.0618
     20 H          -4.8281   -1.1989    0.2399 H       1  UNL1        0.0618
     21 H          -3.5374   -0.2003    2.1074 H       1  UNL1        0.0618
     22 H          -1.0789   -0.2616    2.0900 H       1  UNL1        0.0621
     23 H           2.9249   -0.3970   -0.9156 H       1  UNL1        0.0500
     24 H           3.1063   -0.4169    0.8617 H       1  UNL1        0.0500
     25 H           2.6307    2.1192   -0.8412 H       1  UNL1        0.1040
@<TRIPOS>BOND
     1     1     2    1
     2     2     3    1
     3     2     4    1
     4     4     5   ar
     5     5     6   ar
     6     6     7   ar
     7     7     8   ar
     8     8     9   ar
     9     4     9   ar
    10     1    10    1
    11    10    11    1
    12    11    12    2
    13     1    13    1
    14     2    14    1
    15     3    15    1
    16     3    16    1
    17     3    17    1
    18     5    18    1
    19     6    19    1
    20     7    20    1
    21     8    21    1
    22     9    22    1
    23    10    23    1
    24    10    24    1
    25    11    25    1
