@<TRIPOS>MOLECULE
*****
 25 25 0 0 0
SMALL
GASTEIGER

@<TRIPOS>ATOM
      1 N           1.0426    0.0225   -0.0074 N.3     1  UNL1       -0.3032
      2 C           0.5308    1.2130   -0.7069 C.3     1  UNL1        0.0304
      3 C           1.1337    1.3863   -2.1116 C.3     1  UNL1       -0.0455
      4 C          -0.9953    1.1598   -0.7472 C.ar    1  UNL1       -0.0307
      5 C          -1.7431    1.7467    0.2879 C.ar    1  UNL1       -0.0571
      6 C          -3.1413    1.7270    0.2641 C.ar    1  UNL1       -0.0615
      7 C          -3.8143    1.1142   -0.7913 C.ar    1  UNL1       -0.0617
      8 C          -3.0915    0.5069   -1.8117 C.ar    1  UNL1       -0.0615
      9 C          -1.6944    0.5200   -1.7851 C.ar    1  UNL1       -0.0571
     10 C           2.4975    0.0411    0.1739 C.3     1  UNL1        0.0522
     11 C           2.9178   -1.2041    0.9245 C.2     1  UNL1        0.1340
     12 O           3.7021   -2.0358    0.4701 O.2     1  UNL1       -0.2997
     13 H           0.7780   -0.8048   -0.5444 H       1  UNL1        0.1229
     14 H           0.8085    2.1057   -0.1290 H       1  UNL1        0.0507
     15 H           1.0180    0.4827   -2.7210 H       1  UNL1        0.0248
     16 H           2.2035    1.6134   -2.0657 H       1  UNL1        0.0248
     17 H           0.6544    2.2153   -2.6441 H       1  UNL1        0.0248
     18 H          -1.2376    2.2250    1.1249 H       1  UNL1        0.0621
     19 H          -3.7051    2.1914    1.0685 H       1  UNL1        0.0618
     20 H          -4.9007    1.1054   -0.8135 H       1  UNL1        0.0618
     21 H          -3.6122    0.0210   -2.6330 H       1  UNL1        0.0618
     22 H          -1.1643    0.0250   -2.5935 H       1  UNL1        0.0621
     23 H           2.8127    0.9069    0.7658 H       1  UNL1        0.0500
     24 H           3.0313    0.0438   -0.7814 H       1  UNL1        0.0500
     25 H           2.4971   -1.3202    1.9358 H       1  UNL1        0.1040
@<TRIPOS>BOND
     1     1     2    1
     2     2     3    1
     3     2     4    1
     4     4     5   ar
     5     5     6   ar
     6     6     7   ar
     7     7     8   ar
     8     8     9   ar
     9     4     9   ar
    10     1    10    1
    11    10    11    1
    12    11    12    2
    13     1    13    1
    14     2    14    1
    15     3    15    1
    16     3    16    1
    17     3    17    1
    18     5    18    1
    19     6    19    1
    20     7    20    1
    21     8    21    1
    22     9    22    1
    23    10    23    1
    24    10    24    1
    25    11    25    1
