@<TRIPOS>MOLECULE
*****
 25 25 0 0 0
SMALL
GASTEIGER

@<TRIPOS>ATOM
      1 N           1.0670   -0.1322   -0.1155 N.3     1  UNL1       -0.3032
      2 C           0.5072    0.5733   -1.2807 C.3     1  UNL1        0.0304
      3 C           0.9490   -0.0212   -2.6257 C.3     1  UNL1       -0.0455
      4 C          -1.0164    0.5791   -1.2009 C.ar    1  UNL1       -0.0307
      5 C          -1.7191    1.7941   -1.1682 C.ar    1  UNL1       -0.0571
      6 C          -3.1160    1.8092   -1.1212 C.ar    1  UNL1       -0.0615
      7 C          -3.8290    0.6127   -1.1017 C.ar    1  UNL1       -0.0617
      8 C          -3.1486   -0.6011   -1.1317 C.ar    1  UNL1       -0.0615
      9 C          -1.7537   -0.6184   -1.1842 C.ar    1  UNL1       -0.0571
     10 C           2.5305   -0.0996   -0.0613 C.3     1  UNL1        0.0522
     11 C           2.9835   -0.8189    1.1929 C.2     1  UNL1        0.1340
     12 O           3.6949   -1.8197    1.1814 O.2     1  UNL1       -0.2997
     13 H           0.7589   -1.1042   -0.1418 H       1  UNL1        0.1229
     14 H           0.8527    1.6151   -1.2437 H       1  UNL1        0.0507
     15 H           0.7268   -1.0924   -2.6909 H       1  UNL1        0.0248
     16 H           2.0235    0.1090   -2.7889 H       1  UNL1        0.0248
     17 H           0.4365    0.4739   -3.4587 H       1  UNL1        0.0248
     18 H          -1.1844    2.7409   -1.1826 H       1  UNL1        0.0621
     19 H          -3.6483    2.7567   -1.0996 H       1  UNL1        0.0618
     20 H          -4.9154    0.6258   -1.0627 H       1  UNL1        0.0618
     21 H          -3.7021   -1.5362   -1.1146 H       1  UNL1        0.0618
     22 H          -1.2461   -1.5793   -1.2128 H       1  UNL1        0.0621
     23 H           2.9054    0.9276   -0.0097 H       1  UNL1        0.0500
     24 H           2.9833   -0.6091   -0.9169 H       1  UNL1        0.0500
     25 H           2.6420   -0.3769    2.1458 H       1  UNL1        0.1040
@<TRIPOS>BOND
     1     1     2    1
     2     2     3    1
     3     2     4    1
     4     4     5   ar
     5     5     6   ar
     6     6     7   ar
     7     7     8   ar
     8     8     9   ar
     9     4     9   ar
    10     1    10    1
    11    10    11    1
    12    11    12    2
    13     1    13    1
    14     2    14    1
    15     3    15    1
    16     3    16    1
    17     3    17    1
    18     5    18    1
    19     6    19    1
    20     7    20    1
    21     8    21    1
    22     9    22    1
    23    10    23    1
    24    10    24    1
    25    11    25    1
