@<TRIPOS>MOLECULE
NNTS
42 42 1 0 0
SMALL
NO_CHARGES


@<TRIPOS>ATOM
      1 O1          5.4761   -1.3748    0.5817 O.3       1 NTS    0.0000
      2 C1          4.1965   -1.1246    0.9008 C.2       1 NTS    0.0000
      3 O2          3.8159   -1.2793    2.0370 O.2       1 NTS    0.0000
      4 C2          3.2347   -0.6507   -0.1581 C.3       1 NTS    0.0000
      5 C3          1.8529   -0.4418    0.4647 C.3       1 NTS    0.0000
      6 N           0.9436    0.1153   -0.5398 N.pl3     1 NTS    0.0000
      7 S1         -0.0316   -0.8908   -1.4225 S.o2      1 NTS    0.0000
      8 O3         -0.3588   -0.1724   -2.6041 O.2       1 NTS    0.0000
      9 O4          0.5924   -2.1668   -1.3819 O.2       1 NTS    0.0000
     10 C4         -1.5441   -1.0691   -0.5364 C.ar      1 NTS    0.0000
     11 C5         -2.5884   -0.1936   -0.7683 C.ar      1 NTS    0.0000
     12 C6         -3.7750   -0.3335   -0.0731 C.ar      1 NTS    0.0000
     13 C7         -3.9175   -1.3492    0.8536 C.ar      1 NTS    0.0000
     14 C8         -2.8735   -2.2253    1.0849 C.ar      1 NTS    0.0000
     15 C9         -1.6885   -2.0881    0.3865 C.ar      1 NTS    0.0000
     16 C10        -5.2107   -1.5011    1.6122 C.3       1 NTS    0.0000
     17 CA          0.8971    1.5624   -0.7635 C.3       1 NTS    0.0000
     18 C           0.0041    2.2017    0.2685 C.2       1 NTS    0.0000
     19 O          -0.5725    1.5119    1.0825 O.2       1 NTS    0.0000
     20 N2         -0.1538    3.5401    0.2868 N.am      1 NTS    0.0000
     21 C13        -1.0218    4.1616    1.2900 C.3       1 NTS    0.0000
     22 C14         0.5427    4.3733   -0.6965 C.3       1 NTS    0.0000
     23 H1          6.0933   -1.6789    1.2611 H         1 NTS    0.0000
     24 H2          3.5904    0.2905   -0.5771 H         1 NTS    0.0000
     25 H3          3.1676   -1.3981   -0.9487 H         1 NTS    0.0000
     26 H4          1.4644   -1.3976    0.8162 H         1 NTS    0.0000
     27 H5          1.9335    0.2485    1.3044 H         1 NTS    0.0000
     28 H6         -2.4771    0.6000   -1.4924 H         1 NTS    0.0000
     29 H7         -4.5906    0.3510   -0.2538 H         1 NTS    0.0000
     30 H8         -2.9847   -3.0187    1.8092 H         1 NTS    0.0000
     31 H9         -0.8728   -2.7726    0.5672 H         1 NTS    0.0000
     32 H10        -5.8813   -2.1589    1.0592 H         1 NTS    0.0000
     33 H11        -5.0082   -1.9305    2.5934 H         1 NTS    0.0000
     34 H12        -5.6782   -0.5238    1.7328 H         1 NTS    0.0000
     35 H13         1.9023    1.9754   -0.6801 H         1 NTS    0.0000
     36 H14         0.5030    1.7635   -1.7597 H         1 NTS    0.0000
     37 H15        -0.4371    4.4013    2.1781 H         1 NTS    0.0000
     38 H16        -1.4530    5.0754    0.8813 H         1 NTS    0.0000
     39 H17        -1.8213    3.4704    1.5570 H         1 NTS    0.0000
     40 H18         1.1365    3.7391   -1.3547 H         1 NTS    0.0000
     41 H19        -0.1879    4.9263   -1.2867 H         1 NTS    0.0000
     42 H20         1.1978    5.0746   -0.1795 H         1 NTS    0.0000
@<TRIPOS>BOND
     1    1    2 1
     2    2    3 2
     3    2    4 1
     4    4    5 1
     5    5    6 1
     6    6    7 1
     7    7    8 2
     8    7    9 2
     9    7   10 1
    10   10   11 ar
    11   11   12 ar
    12   12   13 ar
    13   13   14 ar
    14   14   15 ar
    15   10   15 ar
    16   13   16 1
    17    6   17 1
    18   17   18 1
    19   18   19 2
    20   18   20 am
    21   20   21 1
    22   20   22 1
    23    1   23 1
    24    4   24 1
    25    4   25 1
    26    5   26 1
    27    5   27 1
    28   11   28 1
    29   12   29 1
    30   14   30 1
    31   15   31 1
    32   16   32 1
    33   16   33 1
    34   16   34 1
    35   17   35 1
    36   17   36 1
    37   21   37 1
    38   21   38 1
    39   21   39 1
    40   22   40 1
    41   22   41 1
    42   22   42 1
@<TRIPOS>SUBSTRUCTURE
     1 NTS     1 RESIDUE           4 A     NTS     0 ROOT
