@<TRIPOS>MOLECULE
NNTS
   42    42     1     0     0
SMALL
bcc
@<TRIPOS>ATOM
      1 O1          5.4760   -1.3750    0.5820 oh        1 NTS     -0.604161 
      2 C1          4.1970   -1.1250    0.9010 c         1 NTS      0.715039 
      3 O2          3.8160   -1.2790    2.0370 o         1 NTS     -0.586061 
      4 C2          3.2350   -0.6510   -0.1580 c3        1 NTS     -0.098461 
      5 C3          1.8530   -0.4420    0.4650 c3        1 NTS      0.240739 
      6 N           0.9440    0.1150   -0.5400 n3        1 NTS     -0.500561 
      7 S1         -0.0320   -0.8910   -1.4230 sy        1 NTS      0.939139 
      8 O3         -0.3590   -0.1720   -2.6040 o         1 NTS     -0.549861 
      9 O4          0.5920   -2.1670   -1.3820 o         1 NTS     -0.549861 
     10 C4         -1.5440   -1.0690   -0.5360 ca        1 NTS     -0.132561 
     11 C5         -2.5880   -0.1940   -0.7680 ca        1 NTS      0.012939 
     12 C6         -3.7750   -0.3340   -0.0730 ca        1 NTS     -0.132061 
     13 C7         -3.9170   -1.3490    0.8540 ca        1 NTS     -0.015361 
     14 C8         -2.8730   -2.2250    1.0850 ca        1 NTS     -0.132061 
     15 C9         -1.6880   -2.0880    0.3870 ca        1 NTS      0.012939 
     16 C10        -5.2110   -1.5010    1.6120 c3        1 NTS      0.048139 
     17 CA          0.8970    1.5620   -0.7630 c3        1 NTS      0.156739 
     18 C           0.0040    2.2020    0.2690 c         1 NTS      0.582039 
     19 O          -0.5730    1.5120    1.0830 o         1 NTS     -0.597161 
     20 N2         -0.1540    3.5400    0.2870 n         1 NTS      0.000000 
     21 C13        -1.0220    4.1620    1.2900 c3        1 NTS      0.000000 
     22 C14         0.5430    4.3730   -0.6970 c3        1 NTS      0.000000 
     23 H1          6.0930   -1.6790    1.2610 ho        1 NTS      0.427939 
     24 H2          3.5900    0.2900   -0.5770 hc        1 NTS      0.051139 
     25 H3          3.1680   -1.3980   -0.9490 hc        1 NTS      0.051139 
     26 H4          1.4640   -1.3980    0.8160 h1        1 NTS      0.034139 
     27 H5          1.9330    0.2480    1.3040 h1        1 NTS      0.034139 
     28 H6         -2.4770    0.6000   -1.4920 ha        1 NTS      0.119439 
     29 H7         -4.5910    0.3510   -0.2540 ha        1 NTS      0.114939 
     30 H8         -2.9850   -3.0190    1.8090 ha        1 NTS      0.114939 
     31 H9         -0.8730   -2.7730    0.5670 ha        1 NTS      0.119439 
     32 H10        -5.8810   -2.1590    1.0590 hc        1 NTS      0.013639 
     33 H11        -5.0080   -1.9310    2.5930 hc        1 NTS      0.013639 
     34 H12        -5.6780   -0.5240    1.7330 hc        1 NTS      0.013639 
     35 H13         1.9020    1.9750   -0.6800 h1        1 NTS      0.041139 
     36 H14         0.5030    1.7640   -1.7600 h1        1 NTS      0.041139 
     37 H15        -0.4370    4.4010    2.1780 h1        1 NTS      0.000000 
     38 H16        -1.4530    5.0750    0.8810 h1        1 NTS      0.000000 
     39 H17        -1.8210    3.4700    1.5570 h1        1 NTS      0.000000 
     40 H18         1.1370    3.7390   -1.3550 h1        1 NTS      0.000000 
     41 H19        -0.1880    4.9260   -1.2870 h1        1 NTS      0.000000 
     42 H20         1.1980    5.0750   -0.1790 h1        1 NTS      0.000000 
@<TRIPOS>BOND
     1     1     2 1   
     2     2     3 2   
     3     2     4 1   
     4     4     5 1   
     5     5     6 1   
     6     6     7 1   
     7     7     8 2   
     8     7     9 2   
     9     7    10 1   
    10    10    11 ar  
    11    11    12 ar  
    12    12    13 ar  
    13    13    14 ar  
    14    14    15 ar  
    15    10    15 ar  
    16    13    16 1   
    17     6    17 1   
    18    17    18 1   
    19    18    19 2   
    20    18    20 1   
    21    20    21 1   
    22    20    22 1   
    23     1    23 1   
    24     4    24 1   
    25     4    25 1   
    26     5    26 1   
    27     5    27 1   
    28    11    28 1   
    29    12    29 1   
    30    14    30 1   
    31    15    31 1   
    32    16    32 1   
    33    16    33 1   
    34    16    34 1   
    35    17    35 1   
    36    17    36 1   
    37    21    37 1   
    38    21    38 1   
    39    21    39 1   
    40    22    40 1   
    41    22    41 1   
    42    22    42 1   
@<TRIPOS>SUBSTRUCTURE
     1 NTS         1 TEMP              0 ****  ****    0 ROOT
