@<TRIPOS>MOLECULE
*****
 25 25 0 0 0
SMALL
GASTEIGER

@<TRIPOS>ATOM
      1 N           1.0437   -0.0339    0.0246 N.pl3   1  UNL1       -0.3372
      2 C           0.3012   -0.5504   -1.0646 C.ar    1  UNL1        0.0279
      3 C           0.6509   -1.8047   -1.5838 C.ar    1  UNL1       -0.0379
      4 C          -0.1006   -2.4051   -2.6078 C.ar    1  UNL1       -0.0485
      5 C           0.2818   -3.7368   -3.1833 C.3     1  UNL1       -0.0396
      6 C          -1.2397   -1.7520   -3.0936 C.ar    1  UNL1       -0.0558
      7 C          -1.6349   -0.5255   -2.5609 C.ar    1  UNL1       -0.0485
      8 C          -2.8597    0.1877   -3.0455 C.3     1  UNL1       -0.0396
      9 C          -0.8652    0.0531   -1.5413 C.ar    1  UNL1       -0.0379
     10 C           1.0372    1.4314    0.1559 C.3     1  UNL1        0.0646
     11 C           1.8270    1.8550    1.3736 C.2     1  UNL1        0.1372
     12 O           1.3599    2.5477    2.2761 O.2     1  UNL1       -0.2994
     13 H           0.6688   -0.4687    0.8713 H       1  UNL1        0.1465
     14 H           1.5341   -2.3116   -1.1964 H       1  UNL1        0.0639
     15 H           1.2112   -4.1171   -2.7481 H       1  UNL1        0.0278
     16 H           0.4288   -3.6520   -4.2660 H       1  UNL1        0.0278
     17 H          -0.5085   -4.4705   -2.9892 H       1  UNL1        0.0278
     18 H          -1.8284   -2.2126   -3.8858 H       1  UNL1        0.0623
     19 H          -3.3862   -0.3883   -3.8117 H       1  UNL1        0.0278
     20 H          -2.5811    1.1551   -3.4770 H       1  UNL1        0.0278
     21 H          -3.5514    0.3548   -2.2126 H       1  UNL1        0.0278
     22 H          -1.2250    0.9903   -1.1238 H       1  UNL1        0.0639
     23 H           0.0264    1.8296    0.2862 H       1  UNL1        0.0537
     24 H           1.5032    1.8926   -0.7214 H       1  UNL1        0.0537
     25 H           2.8791    1.5362    1.3943 H       1  UNL1        0.1043
@<TRIPOS>BOND
     1     1     2    1
     2     2     3   ar
     3     3     4   ar
     4     4     5    1
     5     4     6   ar
     6     6     7   ar
     7     7     8    1
     8     7     9   ar
     9     2     9   ar
    10     1    10    1
    11    10    11    1
    12    11    12    2
    13     1    13    1
    14     3    14    1
    15     5    15    1
    16     5    16    1
    17     5    17    1
    18     6    18    1
    19     8    19    1
    20     8    20    1
    21     8    21    1
    22     9    22    1
    23    10    23    1
    24    10    24    1
    25    11    25    1
