@<TRIPOS>MOLECULE
*****
 25 25 0 0 0
SMALL
GASTEIGER

@<TRIPOS>ATOM
      1 N           0.8698    0.1719    0.0997 N.pl3   1  UNL1       -0.3372
      2 C           0.2491   -0.3807    1.2249 C.ar    1  UNL1        0.0279
      3 C           0.5891    0.0072    2.5269 C.ar    1  UNL1       -0.0379
      4 C          -0.0886   -0.4994    3.6453 C.ar    1  UNL1       -0.0485
      5 C           0.2788   -0.0494    5.0277 C.3     1  UNL1       -0.0396
      6 C          -1.1277   -1.4149    3.4563 C.ar    1  UNL1       -0.0558
      7 C          -1.5001   -1.8105    2.1678 C.ar    1  UNL1       -0.0485
      8 C          -2.6166   -2.7906    1.9568 C.3     1  UNL1       -0.0396
      9 C          -0.8181   -1.2736    1.0632 C.ar    1  UNL1       -0.0379
     10 C           2.3171    0.3802    0.1581 C.3     1  UNL1        0.0646
     11 C           2.8652    0.7435   -1.2105 C.2     1  UNL1        0.1372
     12 O           2.2305    0.6817   -2.2611 O.2     1  UNL1       -0.2994
     13 H           0.5840   -0.2526   -0.7832 H       1  UNL1        0.1465
     14 H           1.3714    0.7428    2.6844 H       1  UNL1        0.0639
     15 H           1.0984    0.6768    5.0086 H       1  UNL1        0.0278
     16 H           0.6019   -0.9039    5.6302 H       1  UNL1        0.0278
     17 H          -0.5798    0.4304    5.5082 H       1  UNL1        0.0278
     18 H          -1.6596   -1.8082    4.3203 H       1  UNL1        0.0623
     19 H          -3.0549   -3.1097    2.9083 H       1  UNL1        0.0278
     20 H          -2.2414   -3.6833    1.4463 H       1  UNL1        0.0278
     21 H          -3.4114   -2.3371    1.3563 H       1  UNL1        0.0278
     22 H          -1.1225   -1.5696    0.0616 H       1  UNL1        0.0639
     23 H           2.8344   -0.5297    0.4834 H       1  UNL1        0.0537
     24 H           2.5669    1.2052    0.8322 H       1  UNL1        0.0537
     25 H           3.9281    1.0406   -1.2168 H       1  UNL1        0.1043
@<TRIPOS>BOND
     1     1     2    1
     2     2     3   ar
     3     3     4   ar
     4     4     5    1
     5     4     6   ar
     6     6     7   ar
     7     7     8    1
     8     7     9   ar
     9     2     9   ar
    10     1    10    1
    11    10    11    1
    12    11    12    2
    13     1    13    1
    14     3    14    1
    15     5    15    1
    16     5    16    1
    17     5    17    1
    18     6    18    1
    19     8    19    1
    20     8    20    1
    21     8    21    1
    22     9    22    1
    23    10    23    1
    24    10    24    1
    25    11    25    1
