@<TRIPOS>MOLECULE
CNNE
   36    37     1     0     0
SMALL
bcc
@<TRIPOS>ATOM
      1 C1          3.3960    1.4730    0.3600 c3        1 NNE      0.000000 
      2 C2          2.4880    0.7150   -0.5730 c         1 NNE      0.000000 
      3 O1          2.4930    0.9640   -1.7590 o         1 NNE      0.000000 
      4 N           1.6690   -0.2400   -0.0890 n         1 NNE     -0.303650 
      5 C3          0.8580   -1.0440   -1.0060 c3        1 NNE      0.099750 
      6 H1          0.9510   -0.6470   -2.0170 h1        1 NNE      0.076450 
      7 C4          1.3460   -2.4940   -0.9810 c3        1 NNE     -0.010350 
      8 C5         -0.5860   -0.9920   -0.5770 ca        1 NNE     -0.102550 
      9 C6         -1.2980   -2.1430   -0.4310 ca        1 NNE     -0.100250 
     10 C7         -2.6330   -2.1150   -0.0350 ca        1 NNE     -0.102250 
     11 C8         -3.2650   -0.9360    0.2170 ca        1 NNE     -0.070250 
     12 C9         -2.5620    0.2730    0.0770 ca        1 NNE     -0.037250 
     13 C10        -3.1810    1.5100    0.3280 ca        1 NNE     -0.086250 
     14 C11        -2.4690    2.6600    0.1810 ca        1 NNE     -0.096250 
     15 C12        -1.1330    2.6320   -0.2150 ca        1 NNE     -0.086250 
     16 C13        -0.5010    1.4530   -0.4670 ca        1 NNE     -0.104250 
     17 C14        -1.2020    0.2440   -0.3210 ca        1 NNE     -0.008250 
     18 C           1.5970   -0.4560    1.2400 c         1 NNE      0.653350 
     19 O           2.2740    0.2040    1.9980 o         1 NNE     -0.579850 
     20 C16         0.6750   -1.5170    1.7820 c3        1 NNE     -0.078850 
     21 H2          4.0320    2.1440   -0.2170 hc        1 NNE      0.000000 
     22 H3          2.7950    2.0550    1.0590 hc        1 NNE      0.000000 
     23 H4          4.0180    0.7690    0.9140 hc        1 NNE      0.000000 
     24 H5          1.1870   -2.9140    0.0120 hc        1 NNE      0.015450 
     25 H6          0.7890   -3.0770   -1.7150 hc        1 NNE      0.015450 
     26 H7          2.4080   -2.5250   -1.2230 hc        1 NNE      0.015450 
     27 H8         -0.8200   -3.0920   -0.6240 ha        1 NNE      0.112750 
     28 H9         -3.1760   -3.0430    0.0730 ha        1 NNE      0.106750 
     29 H10        -4.3010   -0.9290    0.5230 ha        1 NNE      0.108750 
     30 H11        -4.2150    1.5470    0.6350 ha        1 NNE      0.107750 
     31 H12        -2.9460    3.6100    0.3750 ha        1 NNE      0.106750 
     32 H13        -0.5910    3.5600   -0.3240 ha        1 NNE      0.108750 
     33 H14         0.5340    1.4470   -0.7740 ha        1 NNE      0.132750 
     34 H15         0.2160   -2.0570    0.9540 hc        1 NNE      0.035450 
     35 H16         1.2440   -2.2130    2.3980 hc        1 NNE      0.035450 
     36 H17        -0.1020   -1.0490    2.3860 hc        1 NNE      0.035450 
@<TRIPOS>BOND
     1     1     2 1   
     2     2     3 2   
     3     2     4 1   
     4     4     5 1   
     5     5     6 1   
     6     5     7 1   
     7     5     8 1   
     8     8     9 ar  
     9     9    10 ar  
    10    10    11 ar  
    11    11    12 ar  
    12    12    13 ar  
    13    13    14 ar  
    14    14    15 ar  
    15    15    16 ar  
    16    16    17 ar  
    17    12    17 ar  
    18     8    17 ar  
    19     4    18 1   
    20    18    19 2   
    21    18    20 1   
    22     1    21 1   
    23     1    22 1   
    24     1    23 1   
    25     7    24 1   
    26     7    25 1   
    27     7    26 1   
    28     9    27 1   
    29    10    28 1   
    30    11    29 1   
    31    13    30 1   
    32    14    31 1   
    33    15    32 1   
    34    16    33 1   
    35    20    34 1   
    36    20    35 1   
    37    20    36 1   
@<TRIPOS>SUBSTRUCTURE
     1 NNE         1 TEMP              0 ****  ****    0 ROOT
