@<TRIPOS>MOLECULE
smiles:CC(=O)N([C@@H](C)c1cccc2ccccc21)CC(=O)C
39 40 1 0 0
SMALL
NO_CHARGES


@<TRIPOS>ATOM
      1 C1          2.0917    0.5007   -2.4428 C.3       1 NNE    0.0000
      2 C2          1.3758    0.9233   -1.1858 C.2       1 NNE    0.0000
      3 O1          0.8266    2.0034   -1.1347 O.2       1 NNE    0.0000
      4 N1          1.3458    0.1009   -0.1185 N.am      1 NNE    0.0000
      5 C3          0.5459    0.4548    1.0567 C.3       1 NNE    0.0000
      6 H1          0.5677   -0.3673    1.7721 H         1 NNE    0.0000
      7 C4          1.1246    1.7128    1.7075 C.3       1 NNE    0.0000
      8 C5         -0.8772    0.7164    0.6355 C.ar      1 NNE    0.0000
      9 C6         -1.3437    1.9928    0.5563 C.ar      1 NNE    0.0000
     10 C7         -2.6562    2.2542    0.1687 C.ar      1 NNE    0.0000
     11 C8         -3.5102    1.2408   -0.1423 C.ar      1 NNE    0.0000
     12 C9         -3.0646   -0.0899   -0.0726 C.ar      1 NNE    0.0000
     13 C10        -3.9171   -1.1625   -0.3856 C.ar      1 NNE    0.0000
     14 C11        -3.4507   -2.4385   -0.3064 C.ar      1 NNE    0.0000
     15 C12        -2.1378   -2.7000    0.0816 C.ar      1 NNE    0.0000
     16 C13        -1.2840   -1.6869    0.3925 C.ar      1 NNE    0.0000
     17 C14        -1.7278   -0.3555    0.3169 C.ar      1 NNE    0.0000
     18 C15         2.1130   -1.1471   -0.1335 C.3       1 NNE    0.0000
     19 C16         3.5317   -0.8697    0.2927 C.2       1 NNE    0.0000
     20 O2          3.8672    0.2544    0.5794 O.2       1 NNE    0.0000
     21 C17         4.5316   -1.9951    0.3610 C.3       1 NNE    0.0000
     22 H2          3.1318    0.8231   -2.3944 H         1 NNE    0.0000
     23 H3          2.0516   -0.5845   -2.5363 H         1 NNE    0.0000
     24 H4          1.6094    0.9579   -3.3068 H         1 NNE    0.0000
     25 H5          1.1027    2.5348    0.9921 H         1 NNE    0.0000
     26 H6          0.5294    1.9761    2.5819 H         1 NNE    0.0000
     27 H7          2.1539    1.5235    2.0122 H         1 NNE    0.0000
     28 H8         -0.6866    2.8152    0.7978 H         1 NNE    0.0000
     29 H9         -3.0014    3.2761    0.1147 H         1 NNE    0.0000
     30 H10        -4.5251    1.4584   -0.4408 H         1 NNE    0.0000
     31 H11        -4.9372   -0.9752   -0.6870 H         1 NNE    0.0000
     32 H12        -4.1079   -3.2610   -0.5474 H         1 NNE    0.0000
     33 H13        -1.7929   -3.7220    0.1365 H         1 NNE    0.0000
     34 H14        -0.2695   -1.9047    0.6922 H         1 NNE    0.0000
     35 H15         1.6598   -1.8606    0.5547 H         1 NNE    0.0000
     36 H16         2.1110   -1.5627   -1.1412 H         1 NNE    0.0000
     37 H17         5.0332   -2.0944   -0.6016 H         1 NNE    0.0000
     38 H18         5.2689   -1.7795    1.1344 H         1 NNE    0.0000
     39 H19         4.0160   -2.9253    0.5998 H         1 NNE    0.0000
@<TRIPOS>BOND
     1    1    2 1
     2    2    3 2
     3    2    4 am
     4    4    5 1
     5    5    6 1
     6    5    7 1
     7    5    8 1
     8    8    9 ar
     9    9   10 ar
    10   10   11 ar
    11   11   12 ar
    12   12   13 ar
    13   13   14 ar
    14   14   15 ar
    15   15   16 ar
    16   16   17 ar
    17   12   17 ar
    18    8   17 ar
    19    4   18 1
    20   18   19 1
    21   19   20 2
    22   19   21 1
    23    1   22 1
    24    1   23 1
    25    1   24 1
    26    7   25 1
    27    7   26 1
    28    7   27 1
    29    9   28 1
    30   10   29 1
    31   11   30 1
    32   13   31 1
    33   14   32 1
    34   15   33 1
    35   16   34 1
    36   18   35 1
    37   18   36 1
    38   21   37 1
    39   21   38 1
    40   21   39 1
@<TRIPOS>SUBSTRUCTURE
     1 NNE     1 RESIDUE           4 A     NNE     0 ROOT
