@<TRIPOS>MOLECULE
CNNE
36 37 1 0 0
SMALL
NO_CHARGES


@<TRIPOS>ATOM
      1 C1          3.3961    1.4730    0.3602 C.3       1 NNE    0.0000
      2 C2          2.4877    0.7147   -0.5730 C.2       1 NNE    0.0000
      3 O1          2.4932    0.9636   -1.7594 O.2       1 NNE    0.0000
      4 N           1.6694   -0.2404   -0.0886 N.am      1 NNE    0.0000
      5 C3          0.8581   -1.0443   -1.0061 C.3       1 NNE    0.0000
      6 H1          0.9513   -0.6469   -2.0168 H         1 NNE    0.0000
      7 C4          1.3457   -2.4943   -0.9811 C.3       1 NNE    0.0000
      8 C5         -0.5856   -0.9923   -0.5771 C.ar      1 NNE    0.0000
      9 C6         -1.2977   -2.1432   -0.4306 C.ar      1 NNE    0.0000
     10 C7         -2.6333   -2.1150   -0.0348 C.ar      1 NNE    0.0000
     11 C8         -3.2649   -0.9357    0.2172 C.ar      1 NNE    0.0000
     12 C9         -2.5623    0.2729    0.0771 C.ar      1 NNE    0.0000
     13 C10        -3.1806    1.5100    0.3278 C.ar      1 NNE    0.0000
     14 C11        -2.4686    2.6605    0.1813 C.ar      1 NNE    0.0000
     15 C12        -1.1326    2.6322   -0.2149 C.ar      1 NNE    0.0000
     16 C13        -0.5011    1.4534   -0.4668 C.ar      1 NNE    0.0000
     17 C14        -1.2021    0.2440   -0.3207 C.ar      1 NNE    0.0000
     18 C           1.5973   -0.4558    1.2399 C.2       1 NNE    0.0000
     19 O           2.2744    0.2042    1.9985 O.2       1 NNE    0.0000
     20 C16         0.6751   -1.5171    1.7822 C.3       1 NNE    0.0000
     21 H2          4.0323    2.1437   -0.2173 H         1 NNE    0.0000
     22 H3          2.7951    2.0546    1.0593 H         1 NNE    0.0000
     23 H4          4.0178    0.7693    0.9136 H         1 NNE    0.0000
     24 H5          1.1868   -2.9140    0.0122 H         1 NNE    0.0000
     25 H6          0.7895   -3.0773   -1.7152 H         1 NNE    0.0000
     26 H7          2.4082   -2.5245   -1.2226 H         1 NNE    0.0000
     27 H8         -0.8203   -3.0924   -0.6243 H         1 NNE    0.0000
     28 H9         -3.1757   -3.0426    0.0733 H         1 NNE    0.0000
     29 H10        -4.3007   -0.9292    0.5229 H         1 NNE    0.0000
     30 H11        -4.2154    1.5473    0.6348 H         1 NNE    0.0000
     31 H12        -2.9461    3.6097    0.3746 H         1 NNE    0.0000
     32 H13        -0.5905    3.5599   -0.3239 H         1 NNE    0.0000
     33 H14         0.5343    1.4470   -0.7738 H         1 NNE    0.0000
     34 H15         0.2160   -2.0572    0.9541 H         1 NNE    0.0000
     35 H16         1.2445   -2.2129    2.3985 H         1 NNE    0.0000
     36 H17        -0.1022   -1.0490    2.3861 H         1 NNE    0.0000
@<TRIPOS>BOND
     1    1    2 1
     2    2    3 2
     3    2    4 am
     4    4    5 1
     5    5    6 1
     6    5    7 1
     7    5    8 1
     8    8    9 ar
     9    9   10 ar
    10   10   11 ar
    11   11   12 ar
    12   12   13 ar
    13   13   14 ar
    14   14   15 ar
    15   15   16 ar
    16   16   17 ar
    17   12   17 ar
    18    8   17 ar
    19    4   18 am
    20   18   19 2
    21   18   20 1
    22    1   21 1
    23    1   22 1
    24    1   23 1
    25    7   24 1
    26    7   25 1
    27    7   26 1
    28    9   27 1
    29   10   28 1
    30   11   29 1
    31   13   30 1
    32   14   31 1
    33   15   32 1
    34   16   33 1
    35   20   34 1
    36   20   35 1
    37   20   36 1
@<TRIPOS>SUBSTRUCTURE
     1 NNE     1 RESIDUE           4 A     NNE     0 ROOT
