@<TRIPOS>MOLECULE
*****
 25 25 0 0 0
SMALL
GASTEIGER

@<TRIPOS>ATOM
      1 N           1.1148   -0.2432   -0.0621 N.pl3   1  UNL1       -0.3368
      2 C           0.4524   -0.0597   -1.2904 C.ar    1  UNL1        0.0333
      3 C           0.6998   -0.8369   -2.4509 C.ar    1  UNL1       -0.0294
      4 C           1.6902   -1.9671   -2.5408 C.3     1  UNL1       -0.0380
      5 C          -0.0024   -0.5648   -3.6444 C.ar    1  UNL1       -0.0571
      6 C          -1.0039    0.3932   -3.6928 C.ar    1  UNL1       -0.0611
      7 C          -1.3251    1.0966   -2.5438 C.ar    1  UNL1       -0.0571
      8 C          -0.6240    0.8742   -1.3440 C.ar    1  UNL1       -0.0294
      9 C          -1.0633    1.6713   -0.1393 C.3     1  UNL1       -0.0380
     10 C           2.5326   -0.6078   -0.0231 C.3     1  UNL1        0.0646
     11 C           3.2163   -0.0359    1.2033 C.2     1  UNL1        0.1372
     12 O           2.6972    0.7647    1.9795 O.2     1  UNL1       -0.2994
     13 H           0.9442    0.5234    0.5924 H       1  UNL1        0.1465
     14 H           1.7534   -2.5340   -1.6116 H       1  UNL1        0.0278
     15 H           2.6754   -1.5865   -2.8277 H       1  UNL1        0.0278
     16 H           1.3774   -2.6986   -3.2953 H       1  UNL1        0.0278
     17 H           0.2196   -1.1302   -4.5479 H       1  UNL1        0.0621
     18 H          -1.5438    0.5757   -4.6171 H       1  UNL1        0.0618
     19 H          -2.1368    1.8197   -2.5839 H       1  UNL1        0.0621
     20 H          -1.9334    2.2983   -0.3671 H       1  UNL1        0.0278
     21 H          -0.2614    2.3375    0.1929 H       1  UNL1        0.0278
     22 H          -1.3564    1.0017    0.6755 H       1  UNL1        0.0278
     23 H           3.0836   -0.2288   -0.8893 H       1  UNL1        0.0537
     24 H           2.6379   -1.6931    0.0594 H       1  UNL1        0.0537
     25 H           4.2590   -0.3702    1.3476 H       1  UNL1        0.1043
@<TRIPOS>BOND
     1     1     2    1
     2     2     3   ar
     3     3     4    1
     4     3     5   ar
     5     5     6   ar
     6     6     7   ar
     7     7     8   ar
     8     2     8   ar
     9     8     9    1
    10     1    10    1
    11    10    11    1
    12    11    12    2
    13     1    13    1
    14     4    14    1
    15     4    15    1
    16     4    16    1
    17     5    17    1
    18     6    18    1
    19     7    19    1
    20     9    20    1
    21     9    21    1
    22     9    22    1
    23    10    23    1
    24    10    24    1
    25    11    25    1
