@<TRIPOS>MOLECULE
*****
 31 32 0 0 0
SMALL
GASTEIGER

@<TRIPOS>ATOM
      1 N           1.0374    1.8030    1.5888 N.3     1  UNL1       -0.3032
      2 C           0.3848    1.3142    0.3547 C.3     1  UNL1        0.0310
      3 C           0.7878    2.2849   -0.7737 C.3     1  UNL1       -0.0455
      4 C          -1.1386    1.1982    0.4721 C.ar    1  UNL1       -0.0230
      5 C          -1.8717    2.3872    0.6716 C.ar    1  UNL1       -0.0565
      6 C          -3.2609    2.3901    0.6947 C.ar    1  UNL1       -0.0609
      7 C          -3.9544    1.1968    0.5524 C.ar    1  UNL1       -0.0540
      8 C          -3.2729   -0.0187    0.4284 C.ar    1  UNL1       -0.0176
      9 C          -4.0204   -1.2064    0.3519 C.ar    1  UNL1       -0.0540
     10 C          -3.3954   -2.4461    0.2591 C.ar    1  UNL1       -0.0612
     11 C          -2.0110   -2.5069    0.2213 C.ar    1  UNL1       -0.0612
     12 C          -1.2523   -1.3282    0.2707 C.ar    1  UNL1       -0.0537
     13 C          -1.8500   -0.0461    0.3850 C.ar    1  UNL1       -0.0132
     14 C           0.9203    0.8811    2.7289 C.3     1  UNL1        0.0522
     15 C           1.6099   -0.4497    2.4781 C.2     1  UNL1        0.1340
     16 O           2.5197   -0.6232    1.6743 O.2     1  UNL1       -0.2997
     17 H           2.0354    1.9029    1.3861 H       1  UNL1        0.1229
     18 H           0.8212    0.3567    0.0645 H       1  UNL1        0.0507
     19 H           0.3998    3.2983   -0.6207 H       1  UNL1        0.0248
     20 H           0.4202    1.9301   -1.7424 H       1  UNL1        0.0248
     21 H           1.8792    2.3689   -0.8462 H       1  UNL1        0.0248
     22 H          -1.3491    3.3324    0.8059 H       1  UNL1        0.0621
     23 H          -3.8017    3.3232    0.8223 H       1  UNL1        0.0618
     24 H          -5.0422    1.2215    0.5578 H       1  UNL1        0.0624
     25 H          -5.1088   -1.1746    0.3771 H       1  UNL1        0.0624
     26 H          -3.9902   -3.3544    0.2211 H       1  UNL1        0.0618
     27 H          -1.5145   -3.4722    0.1534 H       1  UNL1        0.0618
     28 H          -0.1733   -1.4435    0.2299 H       1  UNL1        0.0624
     29 H          -0.1258    0.7077    2.9964 H       1  UNL1        0.0500
     30 H           1.4063    1.3338    3.6003 H       1  UNL1        0.0500
     31 H           1.2668   -1.2727    3.1269 H       1  UNL1        0.1040
@<TRIPOS>BOND
     1     2     4    1
     2     4     5   ar
     3     5     6   ar
     4     6     7   ar
     5     7     8   ar
     6     8     9   ar
     7     9    10   ar
     8    10    11   ar
     9    11    12   ar
    10    12    13   ar
    11     8    13   ar
    12     4    13   ar
    13     1    14    1
    14    14    15    1
    15    15    16    2
    16     2     3    1
    17     2     1    1
    18     1    17    1
    19     2    18    1
    20     3    19    1
    21     3    20    1
    22     3    21    1
    23     5    22    1
    24     6    23    1
    25     7    24    1
    26     9    25    1
    27    10    26    1
    28    11    27    1
    29    12    28    1
    30    14    29    1
    31    14    30    1
    32    15    31    1
