@<TRIPOS>MOLECULE
*****
 19 19 0 0 0
SMALL
GASTEIGER

@<TRIPOS>ATOM
      1 N           0.8727    0.0776   -0.0207 N.pl3   1  UNL1       -0.3372
      2 C           0.1464    0.5722    1.0808 C.ar    1  UNL1        0.0276
      3 C           0.5375    1.8087    1.6178 C.ar    1  UNL1       -0.0381
      4 C          -0.1839    2.4025    2.6583 C.ar    1  UNL1       -0.0247
      5 C          -1.3222    1.7752    3.1436 C.ar    1  UNL1        0.1235
      6 F          -2.0213    2.3414    4.1357 F       1  UNL1       -0.2055
      7 C          -1.7556    0.5747    2.6007 C.ar    1  UNL1       -0.0247
      8 C          -1.0289   -0.0165    1.5628 C.ar    1  UNL1       -0.0381
      9 C           0.8588   -1.3791   -0.2139 C.3     1  UNL1        0.0646
     10 C           1.6804   -1.7482   -1.4288 C.2     1  UNL1        0.1372
     11 O           1.2383   -2.3940   -2.3755 O.2     1  UNL1       -0.2994
     12 H           0.5261    0.5522   -0.8584 H       1  UNL1        0.1465
     13 H           1.4243    2.3095    1.2356 H       1  UNL1        0.0637
     14 H           0.1331    3.3481    3.0847 H       1  UNL1        0.0647
     15 H          -2.6618    0.1097    2.9755 H       1  UNL1        0.0647
     16 H          -1.4177   -0.9386    1.1426 H       1  UNL1        0.0637
     17 H          -0.1539   -1.7585   -0.3810 H       1  UNL1        0.0537
     18 H           1.3032   -1.8827    0.6515 H       1  UNL1        0.0537
     19 H           2.7362   -1.4283   -1.4063 H       1  UNL1        0.1043
@<TRIPOS>BOND
     1     1     2    1
     2     2     3   ar
     3     3     4   ar
     4     4     5   ar
     5     5     6    1
     6     5     7   ar
     7     7     8   ar
     8     2     8   ar
     9     1     9    1
    10     9    10    1
    11    10    11    2
    12     1    12    1
    13     3    13    1
    14     4    14    1
    15     7    15    1
    16     8    16    1
    17     9    17    1
    18     9    18    1
    19    10    19    1
