@<TRIPOS>MOLECULE
*****
 31 32 0 0 0
SMALL
GASTEIGER

@<TRIPOS>ATOM
      1 N           1.0051   -0.4091   -2.2348 N.3     1  UNL1       -0.3032
      2 C           0.5436   -1.1231   -1.0180 C.3     1  UNL1        0.0310
      3 C           1.1095   -0.4774    0.2634 C.3     1  UNL1       -0.0455
      4 C          -0.9989   -1.1688   -0.9789 C.ar    1  UNL1       -0.0230
      5 C          -1.6826    0.0712   -0.9725 C.ar    1  UNL1       -0.0565
      6 C          -3.0699    0.1420   -0.9705 C.ar    1  UNL1       -0.0609
      7 C          -3.8204   -1.0243   -0.9638 C.ar    1  UNL1       -0.0540
      8 C          -3.2005   -2.2764   -0.9608 C.ar    1  UNL1       -0.0176
      9 C          -4.0208   -3.4172   -0.9636 C.ar    1  UNL1       -0.0540
     10 C          -3.4738   -4.6939   -0.9719 C.ar    1  UNL1       -0.0612
     11 C          -2.0946   -4.8375   -0.9671 C.ar    1  UNL1       -0.0612
     12 C          -1.2615   -3.7064   -0.9604 C.ar    1  UNL1       -0.0537
     13 C          -1.7774   -2.3822   -0.9653 C.ar    1  UNL1       -0.0132
     14 C           2.4607   -0.4583   -2.4244 C.3     1  UNL1        0.0522
     15 C           2.8304    0.2683   -3.6986 C.2     1  UNL1        0.1340
     16 O           3.6068    1.2298   -3.7318 O.2     1  UNL1       -0.2997
     17 H           0.7212    0.5682   -2.1661 H       1  UNL1        0.1229
     18 H           0.9343   -2.1423   -1.0708 H       1  UNL1        0.0507
     19 H           0.7711    0.5569    0.3939 H       1  UNL1        0.0248
     20 H           2.2046   -0.4584    0.2625 H       1  UNL1        0.0248
     21 H           0.8139   -1.0432    1.1529 H       1  UNL1        0.0248
     22 H          -1.1307    1.0048   -0.9849 H       1  UNL1        0.0621
     23 H          -3.5700    1.1069   -0.9822 H       1  UNL1        0.0618
     24 H          -4.9078   -0.9447   -0.9670 H       1  UNL1        0.0624
     25 H          -5.1043   -3.3176   -0.9660 H       1  UNL1        0.0624
     26 H          -4.1249   -5.5642   -0.9832 H       1  UNL1        0.0618
     27 H          -1.6625   -5.8363   -0.9738 H       1  UNL1        0.0618
     28 H          -0.1914   -3.8893   -0.9568 H       1  UNL1        0.0624
     29 H           2.8105   -1.4913   -2.5169 H       1  UNL1        0.0500
     30 H           3.0003    0.0350   -1.6091 H       1  UNL1        0.0500
     31 H           2.3920   -0.1310   -4.6262 H       1  UNL1        0.1040
@<TRIPOS>BOND
     1     1     2    1
     2     2     3    1
     3     2     4    1
     4     4     5   ar
     5     5     6   ar
     6     6     7   ar
     7     7     8   ar
     8     8     9   ar
     9     9    10   ar
    10    10    11   ar
    11    11    12   ar
    12    12    13   ar
    13     8    13   ar
    14     4    13   ar
    15     1    14    1
    16    14    15    1
    17    15    16    2
    18     1    17    1
    19     2    18    1
    20     3    19    1
    21     3    20    1
    22     3    21    1
    23     5    22    1
    24     6    23    1
    25     7    24    1
    26     9    25    1
    27    10    26    1
    28    11    27    1
    29    12    28    1
    30    14    29    1
    31    14    30    1
    32    15    31    1
