@<TRIPOS>MOLECULE
*****
 25 25 0 0 0
SMALL
GASTEIGER

@<TRIPOS>ATOM
      1 N           0.9298    0.1183   -0.1441 N.pl3   1  UNL1       -0.3372
      2 C           0.3400    0.8220    0.9279 C.ar    1  UNL1        0.0279
      3 C           0.7264    2.1523    1.1419 C.ar    1  UNL1       -0.0379
      4 C           0.1386    2.9308    2.1515 C.ar    1  UNL1       -0.0485
      5 C           0.5905    4.3380    2.4110 C.3     1  UNL1       -0.0396
      6 C          -0.8807    2.3768    2.9346 C.ar    1  UNL1       -0.0558
      7 C          -1.3167    1.0697    2.7087 C.ar    1  UNL1       -0.0485
      8 C          -2.4256    0.4654    3.5171 C.3     1  UNL1       -0.0396
      9 C          -0.7126    0.3118    1.6963 C.ar    1  UNL1       -0.0379
     10 C           0.9490   -1.3459   -0.0137 C.3     1  UNL1        0.0646
     11 C           1.6613   -1.9638   -1.1945 C.2     1  UNL1        0.1372
     12 O           1.1624   -2.8313   -1.9102 O.2     1  UNL1       -0.2994
     13 H           0.4403    0.3957   -0.9981 H       1  UNL1        0.1465
     14 H           1.5155    2.5778    0.5251 H       1  UNL1        0.0639
     15 H           1.3784    4.6451    1.7159 H       1  UNL1        0.0278
     16 H           0.9878    4.4221    3.4280 H       1  UNL1        0.0278
     17 H          -0.2486    5.0320    2.2965 H       1  UNL1        0.0278
     18 H          -1.3398    2.9739    3.7201 H       1  UNL1        0.0623
     19 H          -2.7885    1.1550    4.2853 H       1  UNL1        0.0278
     20 H          -2.0699   -0.4413    4.0173 H       1  UNL1        0.0278
     21 H          -3.2677    0.2076    2.8662 H       1  UNL1        0.0278
     22 H          -1.0988   -0.6869    1.5202 H       1  UNL1        0.0639
     23 H          -0.0618   -1.7649    0.0116 H       1  UNL1        0.0537
     24 H           1.4941   -1.6407    0.8903 H       1  UNL1        0.0537
     25 H           2.6958   -1.6219   -1.3600 H       1  UNL1        0.1043
@<TRIPOS>BOND
     1     1     2    1
     2     2     3   ar
     3     3     4   ar
     4     4     5    1
     5     4     6   ar
     6     6     7   ar
     7     7     8    1
     8     7     9   ar
     9     2     9   ar
    10     1    10    1
    11    10    11    1
    12    11    12    2
    13     1    13    1
    14     3    14    1
    15     5    15    1
    16     5    16    1
    17     5    17    1
    18     6    18    1
    19     8    19    1
    20     8    20    1
    21     8    21    1
    22     9    22    1
    23    10    23    1
    24    10    24    1
    25    11    25    1
