@<TRIPOS>MOLECULE
*****
 31 32 0 0 0
SMALL
GASTEIGER

@<TRIPOS>ATOM
      1 N           1.1065   -0.5871   -1.4119 N.3     1  UNL1       -0.3032
      2 C           0.4729   -1.3768   -0.3326 C.3     1  UNL1        0.0310
      3 C           0.8542   -2.8512   -0.5273 C.3     1  UNL1       -0.0455
      4 C          -1.0527   -1.2787   -0.2811 C.ar    1  UNL1       -0.0230
      5 C          -1.7628   -1.1029   -1.4886 C.ar    1  UNL1       -0.0565
      6 C          -3.1512   -1.0640   -1.5110 C.ar    1  UNL1       -0.0609
      7 C          -3.8619   -1.2495   -0.3304 C.ar    1  UNL1       -0.0540
      8 C          -3.1986   -1.4628    0.8834 C.ar    1  UNL1       -0.0176
      9 C          -3.9507   -1.6990    2.0481 C.ar    1  UNL1       -0.0540
     10 C          -3.3293   -1.9238    3.2727 C.ar    1  UNL1       -0.0612
     11 C          -1.9453   -1.8932    3.3554 C.ar    1  UNL1       -0.0612
     12 C          -1.1836   -1.6619    2.2058 C.ar    1  UNL1       -0.0537
     13 C          -1.7796   -1.4599    0.9368 C.ar    1  UNL1       -0.0132
     14 C           0.9408    0.8599   -1.2018 C.3     1  UNL1        0.0522
     15 C           1.6354    1.5857   -2.3322 C.2     1  UNL1        0.1340
     16 O           2.5428    2.3961   -2.1639 O.2     1  UNL1       -0.2997
     17 H           2.1070   -0.7948   -1.4030 H       1  UNL1        0.1229
     18 H           0.9116   -1.0289    0.6078 H       1  UNL1        0.0507
     19 H           0.4324   -3.2596   -1.4537 H       1  UNL1        0.0248
     20 H           0.4816   -3.4677    0.2993 H       1  UNL1        0.0248
     21 H           1.9414   -2.9815   -0.5658 H       1  UNL1        0.0248
     22 H          -1.2254   -0.9974   -2.4279 H       1  UNL1        0.0621
     23 H          -3.6762   -0.9102   -2.4487 H       1  UNL1        0.0618
     24 H          -4.9479   -1.2373   -0.3723 H       1  UNL1        0.0624
     25 H          -5.0378   -1.7234    2.0027 H       1  UNL1        0.0624
     26 H          -3.9268   -2.1239    4.1584 H       1  UNL1        0.0618
     27 H          -1.4529   -2.0570    4.3103 H       1  UNL1        0.0618
     28 H          -0.1045   -1.6526    2.3293 H       1  UNL1        0.0624
     29 H           1.3780    1.1797   -0.2511 H       1  UNL1        0.0500
     30 H          -0.1105    1.1631   -1.2338 H       1  UNL1        0.0500
     31 H           1.2602    1.3591   -3.3466 H       1  UNL1        0.1040
@<TRIPOS>BOND
     1     2     4    1
     2     4     5   ar
     3     5     6   ar
     4     6     7   ar
     5     7     8   ar
     6     8     9   ar
     7     9    10   ar
     8    10    11   ar
     9    11    12   ar
    10    12    13   ar
    11     8    13   ar
    12     4    13   ar
    13     1    14    1
    14    14    15    1
    15    15    16    2
    16     2     3    1
    17     2     1    1
    18     1    17    1
    19     2    18    1
    20     3    19    1
    21     3    20    1
    22     3    21    1
    23     5    22    1
    24     6    23    1
    25     7    24    1
    26     9    25    1
    27    10    26    1
    28    11    27    1
    29    12    28    1
    30    14    29    1
    31    14    30    1
    32    15    31    1
