@<TRIPOS>MOLECULE
*****
 19 19 0 0 0
SMALL
GASTEIGER

@<TRIPOS>ATOM
      1 N           1.1109    0.0501   -0.2741 N.pl3   1  UNL1       -0.3372
      2 C           0.4074   -0.9943   -0.8848 C.ar    1  UNL1        0.0274
      3 C           0.8315   -2.3146   -0.6864 C.ar    1  UNL1       -0.0408
      4 C           0.1446   -3.3888   -1.2610 C.ar    1  UNL1       -0.0600
      5 C          -1.0022   -3.1591   -2.0157 C.ar    1  UNL1       -0.0616
      6 C          -1.4727   -1.8599   -2.1739 C.ar    1  UNL1       -0.0600
      7 C          -0.7822   -0.7906   -1.5966 C.ar    1  UNL1       -0.0408
      8 C           1.0749    1.3609   -0.9254 C.3     1  UNL1        0.0646
      9 C           2.2879    2.1879   -0.5441 C.2     1  UNL1        0.1372
     10 O           3.2590    1.7582    0.0767 O.2     1  UNL1       -0.2994
     11 H           2.0640   -0.2092   -0.0078 H       1  UNL1        0.1465
     12 H           1.7163   -2.5201   -0.0884 H       1  UNL1        0.0636
     13 H           0.5042   -4.4035   -1.1125 H       1  UNL1        0.0618
     14 H          -1.5368   -3.9910   -2.4654 H       1  UNL1        0.0618
     15 H          -2.3830   -1.6736   -2.7369 H       1  UNL1        0.0618
     16 H          -1.1962    0.2062   -1.7104 H       1  UNL1        0.0636
     17 H           0.1802    1.9089   -0.6127 H       1  UNL1        0.0537
     18 H           1.0904    1.2723   -2.0175 H       1  UNL1        0.0537
     19 H           2.2689    3.2282   -0.9124 H       1  UNL1        0.1043
@<TRIPOS>BOND
     1     1     2    1
     2     2     3   ar
     3     3     4   ar
     4     4     5   ar
     5     5     6   ar
     6     6     7   ar
     7     2     7   ar
     8     1     8    1
     9     8     9    1
    10     9    10    2
    11     1    11    1
    12     3    12    1
    13     4    13    1
    14     5    14    1
    15     6    15    1
    16     7    16    1
    17     8    17    1
    18     8    18    1
    19     9    19    1
