@<TRIPOS>MOLECULE
CNXY
30 30 1 0 0
SMALL
NO_CHARGES


@<TRIPOS>ATOM
      1 C1          3.0420   -0.0529    1.1467 C.3       1 NXY    0.0000
      2 C2          1.5401   -0.1768    1.1491 C.2       1 NXY    0.0000
      3 O1          0.9544   -0.4289    2.1801 O.2       1 NXY    0.0000
      4 N           0.8481   -0.0073    0.0050 N.am      1 NXY    0.0000
      5 C3         -0.5537   -0.0057    0.0274 C.ar      1 NXY    0.0000
      6 C4         -1.2450    1.1840    0.2120 C.ar      1 NXY    0.0000
      7 C5         -0.4893    2.4758    0.3888 C.3       1 NXY    0.0000
      8 C6         -2.6261    1.1825    0.2331 C.ar      1 NXY    0.0000
      9 C7         -3.3201   -0.0023    0.0705 C.ar      1 NXY    0.0000
     10 C8         -2.6343   -1.1889   -0.1137 C.ar      1 NXY    0.0000
     11 C9         -1.2534   -1.1929   -0.1409 C.ar      1 NXY    0.0000
     12 C10        -0.5067   -2.4864   -0.3421 C.3       1 NXY    0.0000
     13 C           1.5037    0.1606   -1.1605 C.2       1 NXY    0.0000
     14 O           2.7110    0.0577   -1.1971 O.2       1 NXY    0.0000
     15 C12         0.7359    0.4763   -2.4182 C.3       1 NXY    0.0000
     16 H1          3.4145   -0.1296    2.1681 H         1 NXY    0.0000
     17 H2          3.4715   -0.8519    0.5423 H         1 NXY    0.0000
     18 H3          3.3263    0.9124    0.7278 H         1 NXY    0.0000
     19 H4         -0.3231    2.9357   -0.5853 H         1 NXY    0.0000
     20 H5         -1.0690    3.1529    1.0162 H         1 NXY    0.0000
     21 H6          0.4708    2.2730    0.8635 H         1 NXY    0.0000
     22 H7         -3.1644    2.1076    0.3771 H         1 NXY    0.0000
     23 H8         -4.4000   -0.0011    0.0877 H         1 NXY    0.0000
     24 H9         -3.1791   -2.1127   -0.2404 H         1 NXY    0.0000
     25 H10        -0.3463   -2.6514   -1.4075 H         1 NXY    0.0000
     26 H11         0.4560   -2.4330    0.1663 H         1 NXY    0.0000
     27 H12        -1.0898   -3.3103    0.0695 H         1 NXY    0.0000
     28 H13        -0.3334    0.4408   -2.2097 H         1 NXY    0.0000
     29 H14         1.0050    1.4730   -2.7677 H         1 NXY    0.0000
     30 H15         0.9807   -0.2567   -3.1870 H         1 NXY    0.0000
@<TRIPOS>BOND
     1    1    2 1
     2    2    3 2
     3    2    4 am
     4    4    5 1
     5    5    6 ar
     6    6    7 1
     7    6    8 ar
     8    8    9 ar
     9    9   10 ar
    10   10   11 ar
    11    5   11 ar
    12   11   12 1
    13    4   13 am
    14   13   14 2
    15   13   15 1
    16    1   16 1
    17    1   17 1
    18    1   18 1
    19    7   19 1
    20    7   20 1
    21    7   21 1
    22    8   22 1
    23    9   23 1
    24   10   24 1
    25   12   25 1
    26   12   26 1
    27   12   27 1
    28   15   28 1
    29   15   29 1
    30   15   30 1
@<TRIPOS>SUBSTRUCTURE
     1 NXY     1 RESIDUE           4 A     NXY     0 ROOT
