@<TRIPOS>MOLECULE
CNXY
   30    30     1     0     0
SMALL
bcc
@<TRIPOS>ATOM
      1 C1          3.0420   -0.0530    1.1470 c3        1 NXY      0.000000 
      2 C2          1.5400   -0.1770    1.1490 c         1 NXY      0.000000 
      3 O1          0.9540   -0.4290    2.1800 o         1 NXY      0.000000 
      4 N           0.8480   -0.0070    0.0050 n         1 NXY     -0.155454 
      5 C3         -0.5540   -0.0060    0.0270 ca        1 NXY     -0.070254 
      6 C4         -1.2450    1.1840    0.2120 ca        1 NXY     -0.053154 
      7 C5         -0.4890    2.4760    0.3890 c3        1 NXY      0.055346 
      8 C6         -2.6260    1.1830    0.2330 ca        1 NXY     -0.106354 
      9 C7         -3.3200   -0.0020    0.0700 ca        1 NXY     -0.078854 
     10 C8         -2.6340   -1.1890   -0.1140 ca        1 NXY     -0.106354 
     11 C9         -1.2530   -1.1930   -0.1410 ca        1 NXY     -0.053154 
     12 C10        -0.5070   -2.4860   -0.3420 c3        1 NXY      0.055346 
     13 C           1.5040    0.1610   -1.1610 c         1 NXY      0.640746 
     14 O           2.7110    0.0580   -1.1970 o         1 NXY     -0.590454 
     15 C12         0.7360    0.4760   -2.4180 c3        1 NXY     -0.068954 
     16 H1          3.4140   -0.1300    2.1680 hc        1 NXY      0.000000 
     17 H2          3.4710   -0.8520    0.5420 hc        1 NXY      0.000000 
     18 H3          3.3260    0.9120    0.7280 hc        1 NXY      0.000000 
     19 H4         -0.3230    2.9360   -0.5850 hc        1 NXY      0.014846 
     20 H5         -1.0690    3.1530    1.0160 hc        1 NXY      0.014846 
     21 H6          0.4710    2.2730    0.8640 hc        1 NXY      0.014846 
     22 H7         -3.1640    2.1080    0.3770 ha        1 NXY      0.112646 
     23 H8         -4.4000   -0.0010    0.0880 ha        1 NXY      0.108146 
     24 H9         -3.1790   -2.1130   -0.2400 ha        1 NXY      0.112646 
     25 H10        -0.3460   -2.6510   -1.4070 hc        1 NXY      0.014846 
     26 H11         0.4560   -2.4330    0.1660 hc        1 NXY      0.014846 
     27 H12        -1.0900   -3.3100    0.0700 hc        1 NXY      0.014846 
     28 H13        -0.3330    0.4410   -2.2100 hc        1 NXY      0.036346 
     29 H14         1.0050    1.4730   -2.7680 hc        1 NXY      0.036346 
     30 H15         0.9810   -0.2570   -3.1870 hc        1 NXY      0.036346 
@<TRIPOS>BOND
     1     1     2 1   
     2     2     3 2   
     3     2     4 1   
     4     4     5 1   
     5     5     6 ar  
     6     6     7 1   
     7     6     8 ar  
     8     8     9 ar  
     9     9    10 ar  
    10    10    11 ar  
    11     5    11 ar  
    12    11    12 1   
    13     4    13 1   
    14    13    14 2   
    15    13    15 1   
    16     1    16 1   
    17     1    17 1   
    18     1    18 1   
    19     7    19 1   
    20     7    20 1   
    21     7    21 1   
    22     8    22 1   
    23     9    23 1   
    24    10    24 1   
    25    12    25 1   
    26    12    26 1   
    27    12    27 1   
    28    15    28 1   
    29    15    29 1   
    30    15    30 1   
@<TRIPOS>SUBSTRUCTURE
     1 NXY         1 TEMP              0 ****  ****    0 ROOT
