@<TRIPOS>MOLECULE
*****
 15 14 0 0 0
SMALL
GASTEIGER

@<TRIPOS>ATOM
      1 N           1.1059    0.0948   -0.0197 N.3     1  UNL1       -0.3003
      2 C           0.5545    1.4516   -0.1124 C.3     1  UNL1        0.0946
      3 C           0.9038    2.1446   -1.4228 C.2     1  UNL1        0.3187
      4 O           1.5563    3.1758   -1.5004 O.2     1  UNL1       -0.2496
      5 O           0.4386    1.4957   -2.5155 O.3     1  UNL1       -0.4797
      6 C           2.5756    0.0870   -0.0081 C.3     1  UNL1        0.0522
      7 C           3.0752   -1.3478    0.0182 C.2     1  UNL1        0.1340
      8 O           2.4476   -2.3040   -0.4331 O.2     1  UNL1       -0.2997
      9 H           0.7781   -0.5386   -0.7474 H       1  UNL1        0.1228
     10 H           0.9103    2.0668    0.7219 H       1  UNL1        0.0539
     11 H          -0.5374    1.4135   -0.0289 H       1  UNL1        0.0539
     12 H          -0.0704    0.6945   -2.2894 H       1  UNL1        0.2951
     13 H           2.9504    0.5902    0.8883 H       1  UNL1        0.0500
     14 H           3.0055    0.5583   -0.8978 H       1  UNL1        0.0500
     15 H           4.1017   -1.4779    0.4017 H       1  UNL1        0.1040
@<TRIPOS>BOND
     1     1     2    1
     2     2     3    1
     3     3     4    2
     4     3     5    1
     5     1     6    1
     6     6     7    1
     7     7     8    2
     8     1     9    1
     9     2    10    1
    10     2    11    1
    11     5    12    1
    12     6    13    1
    13     6    14    1
    14     7    15    1
