@<TRIPOS>MOLECULE
*****
 22 22 0 0 0
SMALL
GASTEIGER

@<TRIPOS>ATOM
      1 N           1.0187   -0.0161    0.0815 N.3     1  UNL1       -0.3057
      2 C           0.4735    0.7662   -1.0300 C.3     1  UNL1        0.0216
      3 C          -1.0354    0.6949   -1.0558 C.ar    1  UNL1       -0.0336
      4 C          -1.7865    1.1634    0.0328 C.ar    1  UNL1       -0.0573
      5 C          -3.1815    1.1251    0.0050 C.ar    1  UNL1       -0.0615
      6 C          -3.8417    0.6214   -1.1139 C.ar    1  UNL1       -0.0617
      7 C          -3.1084    0.1476   -2.2000 C.ar    1  UNL1       -0.0615
      8 C          -1.7118    0.1824   -2.1720 C.ar    1  UNL1       -0.0573
      9 C           2.4821    0.0555    0.0955 C.3     1  UNL1        0.0520
     10 C           2.9970   -0.7725    1.2527 C.2     1  UNL1        0.1340
     11 O           3.7516   -1.7322    1.1162 O.2     1  UNL1       -0.2997
     12 H           0.7292   -0.9877   -0.0489 H       1  UNL1        0.1226
     13 H           0.8779    0.3967   -1.9807 H       1  UNL1        0.0474
     14 H           0.7641    1.8206   -0.9407 H       1  UNL1        0.0474
     15 H          -1.2800    1.5558    0.9127 H       1  UNL1        0.0621
     16 H          -3.7508    1.4872    0.8561 H       1  UNL1        0.0618
     17 H          -4.9278    0.5973   -1.1381 H       1  UNL1        0.0618
     18 H          -3.6244   -0.2477   -3.0711 H       1  UNL1        0.0618
     19 H          -1.1585   -0.1924   -3.0297 H       1  UNL1        0.0621
     20 H           2.8257    1.0838    0.2492 H       1  UNL1        0.0500
     21 H           2.9112   -0.3334   -0.8342 H       1  UNL1        0.0500
     22 H           2.6688   -0.4481    2.2555 H       1  UNL1        0.1040
@<TRIPOS>BOND
     1     1     2    1
     2     2     3    1
     3     3     4   ar
     4     4     5   ar
     5     5     6   ar
     6     6     7   ar
     7     7     8   ar
     8     3     8   ar
     9     1     9    1
    10     9    10    1
    11    10    11    2
    12     1    12    1
    13     2    13    1
    14     2    14    1
    15     4    15    1
    16     5    16    1
    17     6    17    1
    18     7    18    1
    19     8    19    1
    20     9    20    1
    21     9    21    1
    22    10    22    1
