@<TRIPOS>MOLECULE
*****
 12 11 0 0 0
SMALL
GASTEIGER

@<TRIPOS>ATOM
      1 N           1.1033   -0.0432   -0.0585 N.3     1  ALA1       -0.3217
      2 CA          2.5734   -0.0266   -0.0127 C.3     1  ALA1        0.0581
      3 CB          3.0653    0.1956    1.4113 C.3     1  ALA1       -0.0433
      4 C           3.0906   -1.3357   -0.5989 C.2     1  ALA1        0.1366
      5 O           3.8167   -2.1289   -0.0056 O.2     1  ALA1       -0.2994
      6 H1          0.7486    0.8412    0.3072 H       1  ALA1        0.1188
      7 H2          0.7586   -0.7566    0.5878 H       1  ALA1        0.1188
      8 HA          2.9395    0.7796   -0.6576 H       1  ALA1        0.0531
      9 HB1         2.7353   -0.6061    2.0820 H       1  ALA1        0.0249
     10 HB2         2.6994    1.1473    1.8115 H       1  ALA1        0.0249
     11 HB3         4.1603    0.2178    1.4423 H       1  ALA1        0.0249
     12 H           2.7871   -1.5309   -1.6429 H       1  ALA1        0.1043
@<TRIPOS>BOND
     1     1     2    1
     2     2     3    1
     3     2     4    1
     4     4     5    2
     5     1     6    1
     6     1     7    1
     7     2     8    1
     8     3     9    1
     9     3    10    1
    10     3    11    1
    11     4    12    1
