@<TRIPOS>MOLECULE
CALA
   18    17     1     0     0
SMALL
bcc
@<TRIPOS>ATOM
      1 C1          3.0680   -0.9480   -0.2520 c3        1 ALA      0.000000 
      2 C2          1.9100   -0.0590    0.1230 c         1 ALA      0.000000 
      3 O1          2.1030    0.9490    0.7690 o         1 ALA      0.000000 
      4 N           0.6590   -0.3850   -0.2600 n         1 ALA     -0.238122 
      5 CA         -0.4670    0.4780    0.1040 c3        1 ALA     -0.012522 
      6 H1         -0.2910    0.9080    1.0900 h1        1 ALA      0.000000 
      7 C4         -0.6020    1.6020   -0.9250 c3        1 ALA     -0.015322 
      8 C          -1.7350   -0.3350    0.1300 c         1 ALA      0.710878 
      9 O          -1.7020   -1.5150   -0.1300 o         1 ALA     -0.576222 
     10 O3         -2.9020    0.2510    0.4410 oh        1 ALA     -0.582322 
     11 H2          3.9920   -0.5250    0.1420 hc        1 ALA      0.000000 
     12 H3          2.9150   -1.9420    0.1680 hc        1 ALA      0.000000 
     13 H4          3.1350   -1.0190   -1.3380 hc        1 ALA      0.033145 
     14 H5          0.5050   -1.1920   -0.7770 hn        1 ALA      0.176278 
     15 H6         -0.7780    1.1720   -1.9110 hc        1 ALA      0.023478 
     16 H7         -1.4400    2.2440   -0.6540 hc        1 ALA      0.023478 
     17 H8          0.3160    2.1900   -0.9440 hc        1 ALA      0.023478 
     18 H9         -3.7160   -0.2700    0.4580 ho        1 ALA      0.433778 
@<TRIPOS>BOND
     1     1     2 1   
     2     2     3 2   
     3     2     4 1   
     4     4     5 1   
     5     5     6 1   
     6     5     7 1   
     7     5     8 1   
     8     8     9 2   
     9     8    10 1   
    10     1    11 1   
    11     1    12 1   
    12     1    13 1   
    13     4    14 1   
    14     7    15 1   
    15     7    16 1   
    16     7    17 1   
    17    10    18 1   
@<TRIPOS>SUBSTRUCTURE
     1 ALA         1 TEMP              0 ****  ****    0 ROOT
