@<TRIPOS>MOLECULE
CNTS
31 31 1 0 0
SMALL
NO_CHARGES


@<TRIPOS>ATOM
      1 C1          2.3347    1.7875   -1.8681 C.3       1 NTS    0.0000
      2 C2          1.4281    1.5641   -0.6852 C.2       1 NTS    0.0000
      3 O1          0.9168    2.5108   -0.1256 O.2       1 NTS    0.0000
      4 N           1.1856    0.3121   -0.2490 N.am      1 NTS    0.0000
      5 S1          0.1894    0.0665    1.0508 S.o2      1 NTS    0.0000
      6 O2          0.5467   -1.2045    1.5764 O.2       1 NTS    0.0000
      7 O3          0.1944    1.2878    1.7772 O.2       1 NTS    0.0000
      8 C3         -1.4500   -0.1153    0.4312 C.ar      1 NTS    0.0000
      9 C4         -1.9260   -1.3682    0.0929 C.ar      1 NTS    0.0000
     10 C5         -3.2122   -1.5108   -0.3933 C.ar      1 NTS    0.0000
     11 C6         -4.0224   -0.4006   -0.5408 C.ar      1 NTS    0.0000
     12 C7         -3.5467    0.8523   -0.2016 C.ar      1 NTS    0.0000
     13 C8         -2.2620    0.9943    0.2886 C.ar      1 NTS    0.0000
     14 C9         -5.4242   -0.5559   -1.0717 C.3       1 NTS    0.0000
     15 CA          1.8033   -0.8316   -0.9249 C.3       1 NTS    0.0000
     16 C           3.1842   -1.0594   -0.3662 C.2       1 NTS    0.0000
     17 O           3.6089   -0.3403    0.5069 O.2       1 NTS    0.0000
     18 O5          3.9424   -2.0612   -0.8386 O.3       1 NTS    0.0000
     19 H1          3.3616    1.9048   -1.5218 H         1 NTS    0.0000
     20 H2          2.2733    0.9313   -2.5398 H         1 NTS    0.0000
     21 H3          2.0250    2.6882   -2.3982 H         1 NTS    0.0000
     22 H4         -1.2930   -2.2356    0.2081 H         1 NTS    0.0000
     23 H5         -3.5839   -2.4896   -0.6583 H         1 NTS    0.0000
     24 H6         -4.1796    1.7197   -0.3171 H         1 NTS    0.0000
     25 H7         -1.8903    1.9731    0.5536 H         1 NTS    0.0000
     26 H8         -6.1110   -0.7207   -0.2415 H         1 NTS    0.0000
     27 H9         -5.7122    0.3486   -1.6074 H         1 NTS    0.0000
     28 H10        -5.4634   -1.4081   -1.7502 H         1 NTS    0.0000
     29 H11         1.1946   -1.7212   -0.7633 H         1 NTS    0.0000
     30 H12         1.8727   -0.6280   -1.9935 H         1 NTS    0.0000
     31 H13         4.8285   -2.2074   -0.4801 H         1 NTS    0.0000
@<TRIPOS>BOND
     1    1    2 1
     2    2    3 2
     3    2    4 am
     4    4    5 1
     5    5    6 2
     6    5    7 2
     7    5    8 1
     8    8    9 ar
     9    9   10 ar
    10   10   11 ar
    11   11   12 ar
    12   12   13 ar
    13    8   13 ar
    14   11   14 1
    15    4   15 1
    16   15   16 1
    17   16   17 2
    18   16   18 1
    19    1   19 1
    20    1   20 1
    21    1   21 1
    22    9   22 1
    23   10   23 1
    24   12   24 1
    25   13   25 1
    26   14   26 1
    27   14   27 1
    28   14   28 1
    29   15   29 1
    30   15   30 1
    31   18   31 1
@<TRIPOS>SUBSTRUCTURE
     1 NTS     1 RESIDUE           4 A     NTS     0 ROOT
