@<TRIPOS>MOLECULE
CNTS
   31    31     1     0     0
SMALL
bcc


@<TRIPOS>ATOM
      1 C1           2.3350     1.7880    -1.8680 c3         1 NTS      -0.078100
      2 C2           1.4280     1.5640    -0.6850 c          1 NTS       0.695100
      3 O1           0.9170     2.5110    -0.1260 o          1 NTS      -0.594100
      4 N            1.1860     0.3120    -0.2490 n          1 NTS      -0.296200
      5 S1           0.1890     0.0670     1.0510 sy         1 NTS       0.965900
      6 O2           0.5470    -1.2040     1.5760 o          1 NTS      -0.534800
      7 O3           0.1940     1.2880     1.7770 o          1 NTS      -0.534800
      8 C3          -1.4500    -0.1150     0.4310 ca         1 NTS      -0.142500
      9 C4          -1.9260    -1.3680     0.0930 ca         1 NTS       0.016000
     10 C5          -3.2120    -1.5110    -0.3930 ca         1 NTS      -0.138000
     11 C6          -4.0220    -0.4010    -0.5410 ca         1 NTS      -0.016300
     12 C7          -3.5470     0.8520    -0.2020 ca         1 NTS      -0.138000
     13 C8          -2.2620     0.9940     0.2890 ca         1 NTS       0.016000
     14 C9          -5.4240    -0.5560    -1.0720 c3         1 NTS       0.048200
     15 CA           1.8030    -0.8320    -0.9250 c3         1 NTS       0.057000
     16 C            3.1840    -1.0590    -0.3660 c          1 NTS       0.695100
     17 O            3.6090    -0.3400     0.5070 o          1 NTS      -0.576000
     18 O5           3.9420    -2.0610    -0.8390 oh         1 NTS      -0.596100
     19 H1           3.3620     1.9050    -1.5220 hc         1 NTS       0.034700
     20 H2           2.2730     0.9310    -2.5400 hc         1 NTS       0.034700
     21 H3           2.0250     2.6880    -2.3980 hc         1 NTS       0.034700
     22 H4          -1.2930    -2.2360     0.2080 ha         1 NTS       0.126000
     23 H5          -3.5840    -2.4900    -0.6580 ha         1 NTS       0.116000
     24 H6          -4.1800     1.7200    -0.3170 ha         1 NTS       0.116000
     25 H7          -1.8900     1.9730     0.5540 ha         1 NTS       0.126000
     26 H8          -6.1110    -0.7210    -0.2410 hc         1 NTS       0.013700
     27 H9          -5.7120     0.3490    -1.6070 hc         1 NTS       0.013700
     28 H10         -5.4630    -1.4080    -1.7500 hc         1 NTS       0.013700
     29 H11          1.1950    -1.7210    -0.7630 h1         1 NTS       0.046200
     30 H12          1.8730    -0.6280    -1.9940 h1         1 NTS       0.046200
     31 H13          4.8290    -2.2070    -0.4800 ho         1 NTS       0.432000
@<TRIPOS>BOND
     1     1     2 1   
     2     2     3 2   
     3     2     4 1   
     4     4     5 1   
     5     5     6 2   
     6     5     7 2   
     7     5     8 1   
     8     8     9 ar  
     9     9    10 ar  
    10    10    11 ar  
    11    11    12 ar  
    12    12    13 ar  
    13     8    13 ar  
    14    11    14 1   
    15     4    15 1   
    16    15    16 1   
    17    16    17 2   
    18    16    18 1   
    19     1    19 1   
    20     1    20 1   
    21     1    21 1   
    22     9    22 1   
    23    10    23 1   
    24    12    24 1   
    25    13    25 1   
    26    14    26 1   
    27    14    27 1   
    28    14    28 1   
    29    15    29 1   
    30    15    30 1   
    31    18    31 1   
@<TRIPOS>SUBSTRUCTURE
     1 NTS         1 TEMP              0 ****  ****    0 ROOT
