@<TRIPOS>MOLECULE
*****
 17 16 0 0 0
SMALL
GASTEIGER

@<TRIPOS>ATOM
      1 N           1.0984    0.0244    0.0539 N.3     1  UNL1       -0.3085
      2 C           0.5966   -0.1604   -1.3180 C.3     1  UNL1        0.0086
      3 C          -0.9425   -0.1625   -1.3525 C.3     1  UNL1        0.0057
      4 N          -1.4453   -0.3405   -2.7145 N.3     1  UNL1       -0.3288
      5 C           2.5685    0.0147    0.0489 C.3     1  UNL1        0.0518
      6 C           3.0840    0.1962    1.4607 C.2     1  UNL1        0.1340
      7 O           3.7972   -0.6234    2.0315 O.2     1  UNL1       -0.2997
      8 H           0.7675   -0.7594    0.6223 H       1  UNL1        0.1224
      9 H           0.9675   -1.1088   -1.7270 H       1  UNL1        0.0436
     10 H           0.9675    0.6500   -1.9577 H       1  UNL1        0.0436
     11 H          -1.3291    0.7797   -0.9473 H       1  UNL1        0.0434
     12 H          -1.3279   -0.9757   -0.7276 H       1  UNL1        0.0434
     13 H          -1.1431    0.4427   -3.2933 H       1  UNL1        0.1183
     14 H          -2.4644   -0.3016   -2.7009 H       1  UNL1        0.1183
     15 H           2.9607    0.8400   -0.5532 H       1  UNL1        0.0500
     16 H           2.9550   -0.9336   -0.3404 H       1  UNL1        0.0500
     17 H           2.8076    1.1446    1.9540 H       1  UNL1        0.1040
@<TRIPOS>BOND
     1     1     2    1
     2     2     3    1
     3     3     4    1
     4     1     5    1
     5     5     6    1
     6     6     7    2
     7     1     8    1
     8     2     9    1
     9     2    10    1
    10     3    11    1
    11     3    12    1
    12     4    13    1
    13     4    14    1
    14     5    15    1
    15     5    16    1
    16     6    17    1
