@<TRIPOS>MOLECULE
*****
 25 25 0 0 0
SMALL
GASTEIGER

@<TRIPOS>ATOM
      1 N           1.0615    0.0338   -0.1324 N.3     1  UNL1       -0.3094
      2 C           0.5801   -1.3403    0.0949 C.3     1  UNL1        0.0003
      3 C          -0.9497   -1.4327    0.0647 C.3     1  UNL1       -0.0151
      4 C          -1.4394   -2.8458    0.2941 C.ar    1  UNL1       -0.0462
      5 C          -1.7205   -3.3092    1.5880 C.ar    1  UNL1       -0.0585
      6 C          -2.2331   -4.5941    1.7877 C.ar    1  UNL1       -0.0615
      7 C          -2.4469   -5.4385    0.6994 C.ar    1  UNL1       -0.0617
      8 C          -2.1263   -5.0057   -0.5861 C.ar    1  UNL1       -0.0615
      9 C          -1.6228   -3.7189   -0.7879 C.ar    1  UNL1       -0.0585
     10 C           2.5332    0.0395   -0.0775 C.3     1  UNL1        0.0518
     11 C           3.0580    1.4411   -0.3053 C.2     1  UNL1        0.1340
     12 O           3.7400    2.0478    0.5128 O.2     1  UNL1       -0.2997
     13 H           0.7022    0.6381    0.6119 H       1  UNL1        0.1223
     14 H           0.9413   -1.6986    1.0672 H       1  UNL1        0.0427
     15 H           0.9954   -1.9975   -0.6776 H       1  UNL1        0.0427
     16 H          -1.3348   -1.0724   -0.8993 H       1  UNL1        0.0325
     17 H          -1.3839   -0.7725    0.8263 H       1  UNL1        0.0325
     18 H          -1.5565   -2.6700    2.4522 H       1  UNL1        0.0620
     19 H          -2.4743   -4.9328    2.7909 H       1  UNL1        0.0618
     20 H          -2.8598   -6.4314    0.8536 H       1  UNL1        0.0618
     21 H          -2.2777   -5.6689   -1.4337 H       1  UNL1        0.0618
     22 H          -1.3848   -3.3967   -1.7993 H       1  UNL1        0.0620
     23 H           2.9517   -0.5969   -0.8636 H       1  UNL1        0.0500
     24 H           2.8902   -0.3091    0.8969 H       1  UNL1        0.0500
     25 H           2.8232    1.8853   -1.2877 H       1  UNL1        0.1040
@<TRIPOS>BOND
     1     1     2    1
     2     2     3    1
     3     3     4    1
     4     4     5   ar
     5     5     6   ar
     6     6     7   ar
     7     7     8   ar
     8     8     9   ar
     9     4     9   ar
    10     1    10    1
    11    10    11    1
    12    11    12    2
    13     1    13    1
    14     2    14    1
    15     2    15    1
    16     3    16    1
    17     3    17    1
    18     5    18    1
    19     6    19    1
    20     7    20    1
    21     8    21    1
    22     9    22    1
    23    10    23    1
    24    10    24    1
    25    11    25    1
