@<TRIPOS>MOLECULE
*****
 17 16 0 0 0
SMALL
GASTEIGER

@<TRIPOS>ATOM
      1 N           1.0544   -0.0776    0.0202 N.3     1  UNL1       -0.3085
      2 C           0.5547   -1.4324    0.3052 C.3     1  UNL1        0.0086
      3 C          -0.9845   -1.4641    0.3098 C.3     1  UNL1        0.0057
      4 N          -1.4893   -2.8076    0.5914 N.3     1  UNL1       -0.3288
      5 C           2.5255   -0.0794    0.0272 C.3     1  UNL1        0.0518
      6 C           3.0411    1.3142   -0.2611 C.2     1  UNL1        0.1340
      7 O           3.7579    1.9422    0.5187 O.2     1  UNL1       -0.2997
      8 H           0.7209    0.5460    0.7585 H       1  UNL1        0.1224
      9 H           0.9260   -1.7697    1.2818 H       1  UNL1        0.0436
     10 H           0.9244   -2.1310   -0.4556 H       1  UNL1        0.0436
     11 H          -1.3705   -1.1311   -0.6605 H       1  UNL1        0.0434
     12 H          -1.3697   -0.7785    1.0729 H       1  UNL1        0.0434
     13 H          -1.1891   -3.4444   -0.1465 H       1  UNL1        0.1183
     14 H          -2.5083   -2.7947    0.5533 H       1  UNL1        0.1183
     15 H           2.9135   -0.7419   -0.7536 H       1  UNL1        0.0500
     16 H           2.9134   -0.3938    1.0017 H       1  UNL1        0.0500
     17 H           2.7655    1.7426   -1.2389 H       1  UNL1        0.1040
@<TRIPOS>BOND
     1     1     2    1
     2     2     3    1
     3     3     4    1
     4     1     5    1
     5     5     6    1
     6     6     7    2
     7     1     8    1
     8     2     9    1
     9     2    10    1
    10     3    11    1
    11     3    12    1
    12     4    13    1
    13     4    14    1
    14     5    15    1
    15     5    16    1
    16     6    17    1
