@<TRIPOS>MOLECULE
*****
 25 25 0 0 0
SMALL
GASTEIGER

@<TRIPOS>ATOM
      1 N           1.1165   -0.0015    0.0269 N.3     1  UNL1       -0.3094
      2 C           0.6222    0.8856   -1.0363 C.3     1  UNL1        0.0003
      3 C          -0.9120    0.9366   -1.0503 C.3     1  UNL1       -0.0151
      4 C          -1.4223    1.8470   -2.1428 C.ar    1  UNL1       -0.0462
      5 C          -1.6743    1.3472   -3.4276 C.ar    1  UNL1       -0.0585
      6 C          -2.1145    2.1972   -4.4441 C.ar    1  UNL1       -0.0615
      7 C          -2.3033    3.5538   -4.1871 C.ar    1  UNL1       -0.0617
      8 C          -2.0529    4.0619   -2.9137 C.ar    1  UNL1       -0.0615
      9 C          -1.6135    3.2136   -1.8961 C.ar    1  UNL1       -0.0585
     10 C           2.5868   -0.0318    0.0096 C.3     1  UNL1        0.0518
     11 C           3.0787   -0.9480    1.1087 C.2     1  UNL1        0.1340
     12 O           3.7609   -1.9483    0.9039 O.2     1  UNL1       -0.2997
     13 H           0.7681   -0.9474   -0.1462 H       1  UNL1        0.1223
     14 H           0.9848    0.5340   -2.0107 H       1  UNL1        0.0427
     15 H           1.0170    1.8977   -0.8824 H       1  UNL1        0.0427
     16 H          -1.2903    1.2850   -0.0806 H       1  UNL1        0.0325
     17 H          -1.3268   -0.0695   -1.1936 H       1  UNL1        0.0325
     18 H          -1.5281    0.2915   -3.6463 H       1  UNL1        0.0620
     19 H          -2.3091    1.8016   -5.4375 H       1  UNL1        0.0618
     20 H          -2.6444    4.2153   -4.9790 H       1  UNL1        0.0618
     21 H          -2.1995    5.1200   -2.7131 H       1  UNL1        0.0618
     22 H          -1.4193    3.6259   -0.9084 H       1  UNL1        0.0620
     23 H           3.0028    0.9627    0.2009 H       1  UNL1        0.0500
     24 H           2.9636   -0.4022   -0.9498 H       1  UNL1        0.0500
     25 H           2.8058   -0.6504    2.1363 H       1  UNL1        0.1040
@<TRIPOS>BOND
     1     1     2    1
     2     2     3    1
     3     3     4    1
     4     4     5   ar
     5     5     6   ar
     6     6     7   ar
     7     7     8   ar
     8     8     9   ar
     9     4     9   ar
    10     1    10    1
    11    10    11    1
    12    11    12    2
    13     1    13    1
    14     2    14    1
    15     2    15    1
    16     3    16    1
    17     3    17    1
    18     5    18    1
    19     6    19    1
    20     7    20    1
    21     8    21    1
    22     9    22    1
    23    10    23    1
    24    10    24    1
    25    11    25    1
