@<TRIPOS>MOLECULE
NNAA
   26    25     1     0     0
SMALL
bcc


@<TRIPOS>ATOM
      1 N           -0.5840    -0.2900    -0.2280 n3         1 NAA      -0.574200
      2 C1          -1.7450     0.5760     0.0140 c3         1 NAA       0.094500
      3 C2          -1.9880     1.4580    -1.2120 c3         1 NAA       0.007900
      4 C3          -2.9620    -0.2750     0.2700 c          1 NAA       0.670100
      5 O1          -2.8710    -1.4800     0.2520 o          1 NAA      -0.572000
      6 O2          -4.1470     0.3050     0.5170 oh         1 NAA      -0.595100
      7 CA           0.6080     0.4920     0.1290 c3         1 NAA       0.068800
      8 C            1.8420    -0.3420    -0.0970 c          1 NAA       0.610100
      9 O            1.7400    -1.4760    -0.5150 o          1 NAA      -0.593100
     10 N2           3.0600     0.1720     0.1650 n          1 NAA      -0.202800
     11 C6           4.2600    -0.6390    -0.0560 c3         1 NAA       0.075300
     12 C7           3.1840     1.5420     0.6690 c3         1 NAA       0.075300
     13 H1          -0.6430    -1.0470     0.4350 hn         1 NAA       0.288800
     14 H2          -1.5540     1.2060     0.8830 h1         1 NAA       0.051700
     15 H3          -2.1800     0.8280    -2.0810 hc         1 NAA       0.015367
     16 H4          -2.8500     2.1010    -1.0320 hc         1 NAA       0.015367
     17 H5          -1.1080     2.0740    -1.3970 hc         1 NAA       0.015367
     18 H6          -4.9280    -0.2410     0.6810 ho         1 NAA       0.429000
     19 H7           0.6550     1.3870    -0.4920 h1         1 NAA       0.031200
     20 H8           0.5510     0.7800     1.1790 h1         1 NAA       0.031200
     21 H9           4.6170    -0.4900    -1.0750 h1         1 NAA       0.009367
     22 H10          5.0360    -0.3390     0.6490 h1         1 NAA       0.009367
     23 H11          4.0200    -1.6920     0.0950 h1         1 NAA       0.009367
     24 H12          2.1920     1.9830     0.7680 h1         1 NAA       0.009367
     25 H13          3.6740     1.5270     1.6430 h1         1 NAA       0.009367
     26 H14          3.7770     2.1330    -0.0280 h1         1 NAA       0.009367
@<TRIPOS>BOND
     1     1     2 1   
     2     2     3 1   
     3     2     4 1   
     4     4     5 2   
     5     4     6 1   
     6     1     7 1   
     7     7     8 1   
     8     8     9 2   
     9     8    10 1   
    10    10    11 1   
    11    10    12 1   
    12     1    13 1   
    13     2    14 1   
    14     3    15 1   
    15     3    16 1   
    16     3    17 1   
    17     6    18 1   
    18     7    19 1   
    19     7    20 1   
    20    11    21 1   
    21    11    22 1   
    22    11    23 1   
    23    12    24 1   
    24    12    25 1   
    25    12    26 1   
@<TRIPOS>SUBSTRUCTURE
     1 NAA         1 TEMP              0 ****  ****    0 ROOT
