@<TRIPOS>MOLECULE
NNTS
39 39 1 0 0
SMALL
NO_CHARGES


@<TRIPOS>ATOM
      1 O1          0.3241    3.8709    0.9884 O.3       1 NTS    0.0000
      2 C1          0.1143    2.5543    0.8324 C.2       1 NTS    0.0000
      3 O2          0.7023    1.7621    1.5298 O.2       1 NTS    0.0000
      4 C2         -0.8546    2.0644   -0.2127 C.3       1 NTS    0.0000
      5 N          -0.8107    0.6012   -0.2716 N.pl3     1 NTS    0.0000
      6 S1          0.1481   -0.1540   -1.3908 S.o2      1 NTS    0.0000
      7 O3         -0.4728   -1.4058   -1.6493 O.2       1 NTS    0.0000
      8 O4          0.4502    0.8318   -2.3686 O.2       1 NTS    0.0000
      9 C3          1.6786   -0.5323   -0.6037 C.ar      1 NTS    0.0000
     10 C4          1.8067   -1.6925    0.1369 C.ar      1 NTS    0.0000
     11 C5          3.0073   -1.9892    0.7543 C.ar      1 NTS    0.0000
     12 C6          4.0800   -1.1260    0.6308 C.ar      1 NTS    0.0000
     13 C7          3.9521    0.0337   -0.1105 C.ar      1 NTS    0.0000
     14 C8          2.7528    0.3283   -0.7316 C.ar      1 NTS    0.0000
     15 C9          5.3886   -1.4491    1.3048 C.3       1 NTS    0.0000
     16 CA         -1.6151   -0.1938    0.6596 C.3       1 NTS    0.0000
     17 C          -3.0076   -0.3575    0.1073 C.2       1 NTS    0.0000
     18 O          -3.2995    0.1409   -0.9592 O.2       1 NTS    0.0000
     19 N2         -3.9288   -1.0576    0.7984 N.am      1 NTS    0.0000
     20 C12        -5.2825   -1.2167    0.2615 C.3       1 NTS    0.0000
     21 C13        -3.5763   -1.6597    2.0867 C.3       1 NTS    0.0000
     22 H1          0.9458    4.1853    1.6591 H         1 NTS    0.0000
     23 H2         -1.8628    2.3875    0.0465 H         1 NTS    0.0000
     24 H3         -0.5798    2.4755   -1.1841 H         1 NTS    0.0000
     25 H4          0.9687   -2.3669    0.2333 H         1 NTS    0.0000
     26 H5          3.1073   -2.8953    1.3335 H         1 NTS    0.0000
     27 H6          4.7900    0.7082   -0.2067 H         1 NTS    0.0000
     28 H7          2.6529    1.2343   -1.3108 H         1 NTS    0.0000
     29 H8          6.0128   -2.0308    0.6265 H         1 NTS    0.0000
     30 H9          5.9010   -0.5232    1.5661 H         1 NTS    0.0000
     31 H10         5.1985   -2.0268    2.2093 H         1 NTS    0.0000
     32 H11        -1.1578   -1.1748    0.7887 H         1 NTS    0.0000
     33 H12        -1.6636    0.3140    1.6228 H         1 NTS    0.0000
     34 H13        -5.3262   -2.1158   -0.3533 H         1 NTS    0.0000
     35 H14        -5.9918   -1.3045    1.0845 H         1 NTS    0.0000
     36 H15        -5.5367   -0.3483   -0.3462 H         1 NTS    0.0000
     37 H16        -2.5351   -1.4363    2.3194 H         1 NTS    0.0000
     38 H17        -4.2187   -1.2509    2.8667 H         1 NTS    0.0000
     39 H18        -3.7128   -2.7397    2.0325 H         1 NTS    0.0000
@<TRIPOS>BOND
     1    1    2 1
     2    2    3 2
     3    2    4 1
     4    4    5 1
     5    5    6 1
     6    6    7 2
     7    6    8 2
     8    6    9 1
     9    9   10 ar
    10   10   11 ar
    11   11   12 ar
    12   12   13 ar
    13   13   14 ar
    14    9   14 ar
    15   12   15 1
    16    5   16 1
    17   16   17 1
    18   17   18 2
    19   17   19 am
    20   19   20 1
    21   19   21 1
    22    1   22 1
    23    4   23 1
    24    4   24 1
    25   10   25 1
    26   11   26 1
    27   13   27 1
    28   14   28 1
    29   15   29 1
    30   15   30 1
    31   15   31 1
    32   16   32 1
    33   16   33 1
    34   20   34 1
    35   20   35 1
    36   20   36 1
    37   21   37 1
    38   21   38 1
    39   21   39 1
@<TRIPOS>SUBSTRUCTURE
     1 NTS     1 RESIDUE           4 A     NTS     0 ROOT
