@<TRIPOS>MOLECULE
CNTS
   34    34     1     0     0
SMALL
bcc


@<TRIPOS>ATOM
      1 C1           1.8250     2.0140    -2.0380 c3         1 NTS      -0.075100
      2 C2           0.8670     1.8820    -0.8820 c          1 NTS       0.690100
      3 O1           0.1330     2.8040    -0.5940 o          1 NTS      -0.592100
      4 N            0.8270     0.7400    -0.1680 n          1 NTS      -0.310200
      5 S1          -0.2250     0.5950     1.1030 sy         1 NTS       0.956900
      6 O2           0.3150    -0.4200     1.9370 o          1 NTS      -0.539800
      7 O3          -0.5230     1.9230     1.5110 o          1 NTS      -0.539800
      8 C3          -1.7320    -0.0600     0.4660 ca         1 NTS      -0.140500
      9 C4          -1.9260    -1.4280     0.4190 ca         1 NTS       0.017000
     10 C5          -3.1080    -1.9420    -0.0800 ca         1 NTS      -0.137500
     11 C6          -4.0970    -1.0880    -0.5310 ca         1 NTS      -0.015300
     12 C7          -3.9040     0.2800    -0.4830 ca         1 NTS      -0.137500
     13 C8          -2.7230     0.7940     0.0200 ca         1 NTS       0.017000
     14 C9          -5.3860    -1.6480    -1.0770 c3         1 NTS       0.047200
     15 CA           1.7130    -0.3730    -0.5160 c3         1 NTS       0.111000
     16 CB           3.0720    -0.1720     0.1580 c3         1 NTS      -0.098400
     17 C            3.9840    -1.3180    -0.2000 c          1 NTS       0.715100
     18 O            3.5880    -2.2030    -0.9200 o          1 NTS      -0.593000
     19 O5           5.2370    -1.3540     0.2820 oh         1 NTS      -0.598100
     20 H1           2.7720     2.4180    -1.6810 hc         1 NTS       0.031700
     21 H2           1.9930     1.0340    -2.4850 hc         1 NTS       0.031700
     22 H3           1.4020     2.6860    -2.7850 hc         1 NTS       0.031700
     23 H4          -1.1540    -2.0950     0.7720 ha         1 NTS       0.125000
     24 H5          -3.2590    -3.0100    -0.1180 ha         1 NTS       0.115500
     25 H6          -4.6760     0.9480    -0.8360 ha         1 NTS       0.115500
     26 H7          -2.5720     1.8630     0.0580 ha         1 NTS       0.125000
     27 H8          -6.1060    -1.7590    -0.2660 hc         1 NTS       0.013700
     28 H9          -5.7870    -0.9690    -1.8290 hc         1 NTS       0.013700
     29 H10         -5.1960    -2.6210    -1.5290 hc         1 NTS       0.013700
     30 H11          1.2720    -1.3090    -0.1730 h1         1 NTS       0.030200
     31 H12          1.8460    -0.4080    -1.5970 h1         1 NTS       0.030200
     32 H13          3.5130     0.7640    -0.1840 hc         1 NTS       0.057200
     33 H14          2.9400    -0.1380     1.2390 hc         1 NTS       0.057200
     34 H15          5.8220    -2.0880     0.0520 ho         1 NTS       0.429000
@<TRIPOS>BOND
     1     1     2 1   
     2     2     3 2   
     3     2     4 1   
     4     4     5 1   
     5     5     6 2   
     6     5     7 2   
     7     5     8 1   
     8     8     9 ar  
     9     9    10 ar  
    10    10    11 ar  
    11    11    12 ar  
    12    12    13 ar  
    13     8    13 ar  
    14    11    14 1   
    15     4    15 1   
    16    15    16 1   
    17    16    17 1   
    18    17    18 2   
    19    17    19 1   
    20     1    20 1   
    21     1    21 1   
    22     1    22 1   
    23     9    23 1   
    24    10    24 1   
    25    12    25 1   
    26    13    26 1   
    27    14    27 1   
    28    14    28 1   
    29    14    29 1   
    30    15    30 1   
    31    15    31 1   
    32    16    32 1   
    33    16    33 1   
    34    19    34 1   
@<TRIPOS>SUBSTRUCTURE
     1 NTS         1 TEMP              0 ****  ****    0 ROOT
