@<TRIPOS>MOLECULE
CNTS
34 34 1 0 0
SMALL
NO_CHARGES


@<TRIPOS>ATOM
      1 C1          1.8247    2.0145   -2.0385 C.3       1 NTS    0.0000
      2 C2          0.8673    1.8824   -0.8822 C.2       1 NTS    0.0000
      3 O1          0.1333    2.8039   -0.5943 O.2       1 NTS    0.0000
      4 N           0.8267    0.7401   -0.1681 N.am      1 NTS    0.0000
      5 S1         -0.2254    0.5949    1.1025 S.o2      1 NTS    0.0000
      6 O2          0.3149   -0.4204    1.9371 O.2       1 NTS    0.0000
      7 O3         -0.5235    1.9230    1.5107 O.2       1 NTS    0.0000
      8 C3         -1.7324   -0.0600    0.4664 C.ar      1 NTS    0.0000
      9 C4         -1.9261   -1.4279    0.4190 C.ar      1 NTS    0.0000
     10 C5         -3.1084   -1.9417   -0.0802 C.ar      1 NTS    0.0000
     11 C6         -4.0972   -1.0876   -0.5315 C.ar      1 NTS    0.0000
     12 C7         -3.9039    0.2803   -0.4832 C.ar      1 NTS    0.0000
     13 C8         -2.7233    0.7942    0.0199 C.ar      1 NTS    0.0000
     14 C9         -5.3857   -1.6478   -1.0765 C.3       1 NTS    0.0000
     15 CA          1.7133   -0.3731   -0.5159 C.3       1 NTS    0.0000
     16 CB          3.0722   -0.1725    0.1580 C.3       1 NTS    0.0000
     17 C           3.9842   -1.3176   -0.1997 C.2       1 NTS    0.0000
     18 O           3.5880   -2.2033   -0.9198 O.2       1 NTS    0.0000
     19 O5          5.2367   -1.3536    0.2816 O.3       1 NTS    0.0000
     20 H1          2.7720    2.4184   -1.6814 H         1 NTS    0.0000
     21 H2          1.9928    1.0344   -2.4849 H         1 NTS    0.0000
     22 H3          1.4018    2.6863   -2.7854 H         1 NTS    0.0000
     23 H4         -1.1536   -2.0952    0.7716 H         1 NTS    0.0000
     24 H5         -3.2594   -3.0104   -0.1178 H         1 NTS    0.0000
     25 H6         -4.6762    0.9476   -0.8362 H         1 NTS    0.0000
     26 H7         -2.5723    1.8629    0.0576 H         1 NTS    0.0000
     27 H8         -6.1055   -1.7586   -0.2655 H         1 NTS    0.0000
     28 H9         -5.7875   -0.9690   -1.8288 H         1 NTS    0.0000
     29 H10        -5.1960   -2.6209   -1.5294 H         1 NTS    0.0000
     30 H11         1.2725   -1.3093   -0.1733 H         1 NTS    0.0000
     31 H12         1.8456   -0.4080   -1.5972 H         1 NTS    0.0000
     32 H13         3.5129    0.7637   -0.1845 H         1 NTS    0.0000
     33 H14         2.9398   -0.1376    1.2394 H         1 NTS    0.0000
     34 H15         5.8219   -2.0884    0.0520 H         1 NTS    0.0000
@<TRIPOS>BOND
     1    1    2 1
     2    2    3 2
     3    2    4 am
     4    4    5 1
     5    5    6 2
     6    5    7 2
     7    5    8 1
     8    8    9 ar
     9    9   10 ar
    10   10   11 ar
    11   11   12 ar
    12   12   13 ar
    13    8   13 ar
    14   11   14 1
    15    4   15 1
    16   15   16 1
    17   16   17 1
    18   17   18 2
    19   17   19 1
    20    1   20 1
    21    1   21 1
    22    1   22 1
    23    9   23 1
    24   10   24 1
    25   12   25 1
    26   13   26 1
    27   14   27 1
    28   14   28 1
    29   14   29 1
    30   15   30 1
    31   15   31 1
    32   16   32 1
    33   16   33 1
    34   19   34 1
@<TRIPOS>SUBSTRUCTURE
     1 NTS     1 RESIDUE           4 A     NTS     0 ROOT
