@<TRIPOS>MOLECULE
NNTS
   39    39     1     0     0
SMALL
bcc


@<TRIPOS>ATOM
      1 O1           0.3240     3.8710     0.9880 oh         1 NTS      -0.600100
      2 C1           0.1140     2.5540     0.8320 c          1 NTS       0.692100
      3 O2           0.7020     1.7620     1.5300 o          1 NTS      -0.588000
      4 C2          -0.8550     2.0640    -0.2130 c3         1 NTS       0.173800
      5 N           -0.8110     0.6010    -0.2720 n3         1 NTS      -0.473500
      6 S1           0.1480    -0.1540    -1.3910 sy         1 NTS       0.939200
      7 O3          -0.4730    -1.4060    -1.6490 o          1 NTS      -0.544800
      8 O4           0.4500     0.8320    -2.3690 o          1 NTS      -0.544800
      9 C3           1.6790    -0.5320    -0.6040 ca         1 NTS      -0.128500
     10 C4           1.8070    -1.6920     0.1370 ca         1 NTS       0.010500
     11 C5           3.0070    -1.9890     0.7540 ca         1 NTS      -0.132500
     12 C6           4.0800    -1.1260     0.6310 ca         1 NTS      -0.016300
     13 C7           3.9520     0.0340    -0.1110 ca         1 NTS      -0.132500
     14 C8           2.7530     0.3280    -0.7320 ca         1 NTS       0.010500
     15 C9           5.3890    -1.4490     1.3050 c3         1 NTS       0.048200
     16 CA          -1.6150    -0.1940     0.6600 c3         1 NTS       0.150800
     17 C           -3.0080    -0.3570     0.1070 c          1 NTS       0.591100
     18 O           -3.3000     0.1410    -0.9590 o          1 NTS      -0.603100
     19 N2          -3.9290    -1.0580     0.7980 n          1 NTS      -0.203800
     20 C12         -5.2820    -1.2170     0.2620 c3         1 NTS       0.076300
     21 C13         -3.5760    -1.6600     2.0870 c3         1 NTS       0.076300
     22 H1           0.9460     4.1850     1.6590 ho         1 NTS       0.427000
     23 H2          -1.8630     2.3880     0.0460 h1         1 NTS       0.059700
     24 H3          -0.5800     2.4750    -1.1840 h1         1 NTS       0.059700
     25 H4           0.9690    -2.3670     0.2330 ha         1 NTS       0.117500
     26 H5           3.1070    -2.8950     1.3330 ha         1 NTS       0.114500
     27 H6           4.7900     0.7080    -0.2070 ha         1 NTS       0.114500
     28 H7           2.6530     1.2340    -1.3110 ha         1 NTS       0.117500
     29 H8           6.0130    -2.0310     0.6260 hc         1 NTS       0.013700
     30 H9           5.9010    -0.5230     1.5660 hc         1 NTS       0.013700
     31 H10          5.1990    -2.0270     2.2090 hc         1 NTS       0.013700
     32 H11         -1.1580    -1.1750     0.7890 h1         1 NTS       0.046700
     33 H12         -1.6640     0.3140     1.6230 h1         1 NTS       0.046700
     34 H13         -5.3260    -2.1160    -0.3530 h1         1 NTS       0.008867
     35 H14         -5.9920    -1.3040     1.0850 h1         1 NTS       0.008867
     36 H15         -5.5370    -0.3480    -0.3460 h1         1 NTS       0.008867
     37 H16         -2.5350    -1.4360     2.3190 h1         1 NTS       0.008867
     38 H17         -4.2190    -1.2510     2.8670 h1         1 NTS       0.008867
     39 H18         -3.7130    -2.7400     2.0330 h1         1 NTS       0.008867
@<TRIPOS>BOND
     1     1     2 1   
     2     2     3 2   
     3     2     4 1   
     4     4     5 1   
     5     5     6 1   
     6     6     7 2   
     7     6     8 2   
     8     6     9 1   
     9     9    10 ar  
    10    10    11 ar  
    11    11    12 ar  
    12    12    13 ar  
    13    13    14 ar  
    14     9    14 ar  
    15    12    15 1   
    16     5    16 1   
    17    16    17 1   
    18    17    18 2   
    19    17    19 1   
    20    19    20 1   
    21    19    21 1   
    22     1    22 1   
    23     4    23 1   
    24     4    24 1   
    25    10    25 1   
    26    11    26 1   
    27    13    27 1   
    28    14    28 1   
    29    15    29 1   
    30    15    30 1   
    31    15    31 1   
    32    16    32 1   
    33    16    33 1   
    34    20    34 1   
    35    20    35 1   
    36    20    36 1   
    37    21    37 1   
    38    21    38 1   
    39    21    39 1   
@<TRIPOS>SUBSTRUCTURE
     1 NTS         1 TEMP              0 ****  ****    0 ROOT
