@<TRIPOS>MOLECULE
*****
 25 25 0 0 0
SMALL
GASTEIGER

@<TRIPOS>ATOM
      1 N           0.9597   -0.1348   -0.0919 N.pl3   1  UNL1       -0.3372
      2 C           0.2509    0.4219   -1.1766 C.ar    1  UNL1        0.0279
      3 C           0.6405    0.0578   -2.4729 C.ar    1  UNL1       -0.0379
      4 C          -0.0671    0.5001   -3.6011 C.ar    1  UNL1       -0.0485
      5 C           0.3725    0.1321   -4.9876 C.3     1  UNL1       -0.0396
      6 C          -1.2079    1.2915   -3.4255 C.ar    1  UNL1       -0.0558
      7 C          -1.6427    1.6314   -2.1427 C.ar    1  UNL1       -0.0485
      8 C          -2.8795    2.4541   -1.9332 C.3     1  UNL1       -0.0396
      9 C          -0.9132    1.1853   -1.0308 C.ar    1  UNL1       -0.0379
     10 C           0.9176    0.6123    1.1725 C.3     1  UNL1        0.0646
     11 C           1.7276   -0.1131    2.2237 C.2     1  UNL1        0.1372
     12 O           1.2724   -0.4664    3.3101 O.2     1  UNL1       -0.2994
     13 H           0.6052   -1.0849    0.0434 H       1  UNL1        0.1465
     14 H           1.5227   -0.5665   -2.6018 H       1  UNL1        0.0639
     15 H           1.2881   -0.4678   -4.9757 H       1  UNL1        0.0278
     16 H           0.5726    1.0364   -5.5718 H       1  UNL1        0.0278
     17 H          -0.4069   -0.4517   -5.4882 H       1  UNL1        0.0278
     18 H          -1.7643    1.6333   -4.2963 H       1  UNL1        0.0623
     19 H          -3.3570    2.7137   -2.8831 H       1  UNL1        0.0278
     20 H          -2.6267    3.3853   -1.4162 H       1  UNL1        0.0278
     21 H          -3.6053    1.8956   -1.3332 H       1  UNL1        0.0278
     22 H          -1.2952    1.4383   -0.0469 H       1  UNL1        0.0639
     23 H          -0.1019    0.7088    1.5577 H       1  UNL1        0.0537
     24 H           1.3589    1.6069    1.0433 H       1  UNL1        0.0537
     25 H           2.7873   -0.2859    1.9744 H       1  UNL1        0.1043
@<TRIPOS>BOND
     1     1     2    1
     2     2     3   ar
     3     3     4   ar
     4     4     5    1
     5     4     6   ar
     6     6     7   ar
     7     7     8    1
     8     7     9   ar
     9     2     9   ar
    10     1    10    1
    11    10    11    1
    12    11    12    2
    13     1    13    1
    14     3    14    1
    15     5    15    1
    16     5    16    1
    17     5    17    1
    18     6    18    1
    19     8    19    1
    20     8    20    1
    21     8    21    1
    22     9    22    1
    23    10    23    1
    24    10    24    1
    25    11    25    1
