@<TRIPOS>MOLECULE
*****
 18 17 0 0 0
SMALL
GASTEIGER

@<TRIPOS>ATOM
      1 N           0.9638    0.0222    0.0088 N.3     1  UNL1       -0.3092
      2 C           0.4979   -1.3354   -0.3155 C.3     1  UNL1        0.0063
      3 C          -1.0251   -1.4513   -0.4062 C.3     1  UNL1        0.0573
      4 C          -1.4592   -2.8476   -0.7716 C.2     1  UNL1        0.3059
      5 O          -0.7129   -3.7804   -1.0130 O.2     1  UNL1       -0.2510
      6 O          -2.8081   -2.9696   -0.7994 O.3     1  UNL1       -0.4806
      7 C           0.5550    0.4509    1.3495 C.3     1  UNL1        0.0518
      8 C           1.0975    1.8360    1.6177 C.2     1  UNL1        0.1340
      9 O           0.3767    2.8134    1.8063 O.2     1  UNL1       -0.2997
     10 H           0.6103    0.6821   -0.6859 H       1  UNL1        0.1223
     11 H           0.9006   -2.0510    0.4122 H       1  UNL1        0.0429
     12 H           0.9380   -1.6134   -1.2815 H       1  UNL1        0.0429
     13 H          -1.4082   -0.7607   -1.1656 H       1  UNL1        0.0390
     14 H          -1.4841   -1.2183    0.5598 H       1  UNL1        0.0390
     15 H          -3.2890   -2.1476   -0.5838 H       1  UNL1        0.2951
     16 H           0.9518   -0.2188    2.1199 H       1  UNL1        0.0500
     17 H          -0.5337    0.5024    1.4446 H       1  UNL1        0.0500
     18 H           2.1960    1.9253    1.6451 H       1  UNL1        0.1040
@<TRIPOS>BOND
     1     1     2    1
     2     2     3    1
     3     3     4    1
     4     4     5    2
     5     4     6    1
     6     1     7    1
     7     7     8    1
     8     8     9    2
     9     1    10    1
    10     2    11    1
    11     2    12    1
    12     3    13    1
    13     3    14    1
    14     6    15    1
    15     7    16    1
    16     7    17    1
    17     8    18    1
