@<TRIPOS>MOLECULE
*****
 17 16 0 0 0
SMALL
GASTEIGER

@<TRIPOS>ATOM
      1 N           1.0786    0.0509    0.0096 N.3     1  UNL1       -0.3085
      2 C           0.5787    1.4135   -0.2331 C.3     1  UNL1        0.0086
      3 C          -0.9607    1.4451   -0.2352 C.3     1  UNL1        0.0057
      4 N          -1.4671    2.7968   -0.4711 N.3     1  UNL1       -0.3288
      5 C           2.5501    0.0515    0.0015 C.3     1  UNL1        0.0518
      6 C           3.0667   -1.3492    0.2480 C.2     1  UNL1        0.1340
      7 O           3.7768   -1.9573   -0.5535 O.2     1  UNL1       -0.2997
      8 H           0.7442   -0.5505   -0.7470 H       1  UNL1        0.1224
      9 H           0.9496    1.7822   -1.1987 H       1  UNL1        0.0436
     10 H           0.9483    2.0882    0.5494 H       1  UNL1        0.0436
     11 H          -1.3452    1.0797    0.7240 H       1  UNL1        0.0434
     12 H          -1.3462    0.7847   -1.0202 H       1  UNL1        0.0434
     13 H          -1.1690    3.4083    0.2886 H       1  UNL1        0.1183
     14 H          -2.4862    2.7816   -0.4348 H       1  UNL1        0.1183
     15 H           2.9386    0.6885    0.8025 H       1  UNL1        0.0500
     16 H           2.9381    0.3969   -0.9625 H       1  UNL1        0.0500
     17 H           2.8011   -1.8023    1.2184 H       1  UNL1        0.1040
@<TRIPOS>BOND
     1     1     2    1
     2     2     3    1
     3     3     4    1
     4     1     5    1
     5     5     6    1
     6     6     7    2
     7     1     8    1
     8     2     9    1
     9     2    10    1
    10     3    11    1
    11     3    12    1
    12     4    13    1
    13     4    14    1
    14     5    15    1
    15     5    16    1
    16     6    17    1
