@<TRIPOS>MOLECULE
*****
 16 15 0 0 0
SMALL
GASTEIGER

@<TRIPOS>ATOM
      1 N           0.9615   -0.0507   -0.0379 N.3     1  UNL1       -0.3076
      2 C           0.4609   -1.2034    0.7334 C.3     1  UNL1        0.0195
      3 C          -1.0732   -1.2027    0.7645 C.3     1  UNL1        0.0567
      4 O          -1.5924   -1.2484   -0.5614 O.3     1  UNL1       -0.3938
      5 C           2.4355   -0.0647   -0.0471 C.3     1  UNL1        0.0519
      6 C           2.9364    1.1202   -0.8423 C.2     1  UNL1        0.1340
      7 O           3.6219    2.0176   -0.3588 O.2     1  UNL1       -0.2997
      8 H           0.6548    0.8091    0.4262 H       1  UNL1        0.1224
      9 H           0.8413   -1.1761    1.7601 H       1  UNL1        0.0446
     10 H           0.8016   -2.1276    0.2533 H       1  UNL1        0.0446
     11 H          -1.4594   -0.3020    1.2532 H       1  UNL1        0.0570
     12 H          -1.4442   -2.0763    1.3093 H       1  UNL1        0.0570
     13 H          -1.0347   -0.6347   -1.0776 H       1  UNL1        0.2095
     14 H           2.8183   -0.9713   -0.5273 H       1  UNL1        0.0500
     15 H           2.8350    0.0008    0.9707 H       1  UNL1        0.0500
     16 H           2.6595    1.1308   -1.9103 H       1  UNL1        0.1040
@<TRIPOS>BOND
     1     1     2    1
     2     2     3    1
     3     3     4    1
     4     1     5    1
     5     5     6    1
     6     6     7    2
     7     1     8    1
     8     2     9    1
     9     2    10    1
    10     3    11    1
    11     3    12    1
    12     4    13    1
    13     5    14    1
    14     5    15    1
    15     6    16    1
