@<TRIPOS>MOLECULE
*****
 25 25 0 0 0
SMALL
GASTEIGER

@<TRIPOS>ATOM
      1 N           1.0379   -0.0282    0.0170 N.3     1  UNL1       -0.3032
      2 C           0.4811    0.6061   -1.1892 C.3     1  UNL1        0.0304
      3 C           0.9317   -0.0636   -2.4951 C.3     1  UNL1       -0.0455
      4 C          -1.0424    0.6112   -1.1156 C.ar    1  UNL1       -0.0307
      5 C          -1.7484    1.8242   -1.1516 C.ar    1  UNL1       -0.0571
      6 C          -3.1454    1.8391   -1.1063 C.ar    1  UNL1       -0.0615
      7 C          -3.8561    0.6440   -1.0206 C.ar    1  UNL1       -0.0617
      8 C          -3.1720   -0.5678   -0.9826 C.ar    1  UNL1       -0.0615
      9 C          -1.7768   -0.5851   -1.0329 C.ar    1  UNL1       -0.0571
     10 C           2.5003    0.0182    0.0777 C.3     1  UNL1        0.0522
     11 C           2.9466   -0.6189    1.3771 C.2     1  UNL1        0.1340
     12 O           3.6590   -1.6191    1.4308 O.2     1  UNL1       -0.2997
     13 H           0.7373   -1.0026    0.0435 H       1  UNL1        0.1229
     14 H           0.8229    1.6495   -1.2111 H       1  UNL1        0.0507
     15 H           0.7209   -1.1391   -2.4960 H       1  UNL1        0.0248
     16 H           2.0054    0.0678   -2.6636 H       1  UNL1        0.0248
     17 H           0.4160    0.3748   -3.3574 H       1  UNL1        0.0248
     18 H          -1.2156    2.7702   -1.2175 H       1  UNL1        0.0621
     19 H          -3.6793    2.7852   -1.1378 H       1  UNL1        0.0618
     20 H          -4.9421    0.6569   -0.9831 H       1  UNL1        0.0618
     21 H          -3.7233   -1.5021   -0.9140 H       1  UNL1        0.0618
     22 H          -1.2669   -1.5447   -1.0073 H       1  UNL1        0.0621
     23 H           2.8687    1.0489    0.0691 H       1  UNL1        0.0500
     24 H           2.9622   -0.5395   -0.7426 H       1  UNL1        0.0500
     25 H           2.6014   -0.1195    2.2981 H       1  UNL1        0.1040
@<TRIPOS>BOND
     1     1     2    1
     2     2     3    1
     3     2     4    1
     4     4     5   ar
     5     5     6   ar
     6     6     7   ar
     7     7     8   ar
     8     8     9   ar
     9     4     9   ar
    10     1    10    1
    11    10    11    1
    12    11    12    2
    13     1    13    1
    14     2    14    1
    15     3    15    1
    16     3    16    1
    17     3    17    1
    18     5    18    1
    19     6    19    1
    20     7    20    1
    21     8    21    1
    22     9    22    1
    23    10    23    1
    24    10    24    1
    25    11    25    1
