@<TRIPOS>MOLECULE
*****
 15 14 0 0 0
SMALL
GASTEIGER

@<TRIPOS>ATOM
      1 N           1.0082   -0.0485    0.0391 N.3     1  UNL1       -0.3003
      2 C           0.4602    1.2324   -0.4254 C.3     1  UNL1        0.0946
      3 C           0.8237    1.5421   -1.8725 C.2     1  UNL1        0.3187
      4 O           1.4832    2.5073   -2.2238 O.2     1  UNL1       -0.2496
      5 O           0.3621    0.6182   -2.7489 O.3     1  UNL1       -0.4797
      6 C           2.4779   -0.0591    0.0409 C.3     1  UNL1        0.0522
      7 C           2.9759   -1.4227    0.4851 C.2     1  UNL1        0.1340
      8 O           2.3558   -2.4708    0.3175 O.2     1  UNL1       -0.2997
      9 H           0.6725   -0.8581   -0.4815 H       1  UNL1        0.1228
     10 H           0.8139    2.0505    0.2128 H       1  UNL1        0.0539
     11 H          -0.6316    1.2193   -0.3443 H       1  UNL1        0.0539
     12 H          -0.1494   -0.0904   -2.3149 H       1  UNL1        0.2951
     13 H           2.8615    0.6852    0.7447 H       1  UNL1        0.0500
     14 H           2.9003    0.1267   -0.9520 H       1  UNL1        0.0500
     15 H           3.9976   -1.4333    0.9033 H       1  UNL1        0.1040
@<TRIPOS>BOND
     1     1     2    1
     2     2     3    1
     3     3     4    2
     4     3     5    1
     5     1     6    1
     6     6     7    1
     7     7     8    2
     8     1     9    1
     9     2    10    1
    10     2    11    1
    11     5    12    1
    12     6    13    1
    13     6    14    1
    14     7    15    1
