@<TRIPOS>MOLECULE
*****
 22 22 0 0 0
SMALL
GASTEIGER

@<TRIPOS>ATOM
      1 N           1.0609    0.0176   -0.1032 N.3     1  UNL1       -0.3057
      2 C           0.5487   -1.3363   -0.3107 C.3     1  UNL1        0.0216
      3 C          -0.9604   -1.3403   -0.3004 C.ar    1  UNL1       -0.0336
      4 C          -1.6799   -1.1241   -1.4849 C.ar    1  UNL1       -0.0573
      5 C          -3.0731   -1.1973   -1.4891 C.ar    1  UNL1       -0.0615
      6 C          -3.7607   -1.4706   -0.3081 C.ar    1  UNL1       -0.0617
      7 C          -3.0576   -1.6558    0.8812 C.ar    1  UNL1       -0.0615
      8 C          -1.6642   -1.5807    0.8884 C.ar    1  UNL1       -0.0573
      9 C           2.5260    0.0222   -0.1090 C.3     1  UNL1        0.0520
     10 C           3.0210    1.4352    0.1105 C.2     1  UNL1        0.1340
     11 O           3.7420    1.7547    1.0587 O.2     1  UNL1       -0.2997
     12 H           0.7180    0.3471    0.7994 H       1  UNL1        0.1226
     13 H           0.9080   -2.0214    0.4690 H       1  UNL1        0.0474
     14 H           0.8988   -1.7415   -1.2685 H       1  UNL1        0.0474
     15 H          -1.1537   -0.9264   -2.4158 H       1  UNL1        0.0621
     16 H          -3.6205   -1.0552   -2.4171 H       1  UNL1        0.0618
     17 H          -4.8447   -1.5450   -0.3161 H       1  UNL1        0.0618
     18 H          -3.5944   -1.8738    1.8008 H       1  UNL1        0.0618
     19 H          -1.1282   -1.7440    1.8210 H       1  UNL1        0.0621
     20 H           2.9098   -0.3175   -1.0769 H       1  UNL1        0.0500
     21 H           2.9277   -0.6103    0.6895 H       1  UNL1        0.0500
     22 H           2.7218    2.1826   -0.6429 H       1  UNL1        0.1040
@<TRIPOS>BOND
     1     1     2    1
     2     2     3    1
     3     3     4   ar
     4     4     5   ar
     5     5     6   ar
     6     6     7   ar
     7     7     8   ar
     8     3     8   ar
     9     1     9    1
    10     9    10    1
    11    10    11    2
    12     1    12    1
    13     2    13    1
    14     2    14    1
    15     4    15    1
    16     5    16    1
    17     6    17    1
    18     7    18    1
    19     8    19    1
    20     9    20    1
    21     9    21    1
    22    10    22    1
