@<TRIPOS>MOLECULE
*****
 12 11 0 0 0
SMALL
GASTEIGER

@<TRIPOS>ATOM
      1 N           1.0617    0.0442    0.0131 N.3     1  ALA1       -0.3217
      2 CA          2.5317    0.0436    0.0608 C.3     1  ALA1        0.0581
      3 CB          3.0250   -0.2625    1.4687 C.3     1  ALA1       -0.0433
      4 C           3.0488   -0.9667   -0.9581 C.2     1  ALA1        0.1366
      5 O           3.7739   -1.9210   -0.6903 O.2     1  ALA1       -0.2994
      6 H1          0.7075    0.7378    0.6727 H       1  ALA1        0.1188
      7 H2          0.7173   -0.8539    0.3598 H       1  ALA1        0.1188
      8 HA          2.8975    1.0279   -0.2505 H       1  ALA1        0.0531
      9 HB1         2.6956   -1.2523    1.8053 H       1  ALA1        0.0249
     10 HB2         2.6597    0.4806    2.1856 H       1  ALA1        0.0249
     11 HB3         4.1201   -0.2528    1.5046 H       1  ALA1        0.0249
     12 H           2.7463   -0.7716   -2.0022 H       1  ALA1        0.1043
@<TRIPOS>BOND
     1     1     2    1
     2     2     3    1
     3     2     4    1
     4     4     5    2
     5     1     6    1
     6     1     7    1
     7     2     8    1
     8     3     9    1
     9     3    10    1
    10     3    11    1
    11     4    12    1
