@<TRIPOS>MOLECULE
*****
 25 25 0 0 0
SMALL
GASTEIGER

@<TRIPOS>ATOM
      1 N           0.8982    0.0569    0.0701 N.pl3   1  UNL1       -0.3372
      2 C           0.2458   -0.4807    1.2008 C.ar    1  UNL1        0.0279
      3 C           0.5917    0.0143    2.4660 C.ar    1  UNL1       -0.0379
      4 C          -0.0626   -0.4286    3.6270 C.ar    1  UNL1       -0.0485
      5 C           0.3394    0.0681    4.9850 C.3     1  UNL1       -0.0396
      6 C          -1.1068   -1.3536    3.5130 C.ar    1  UNL1       -0.0558
      7 C          -1.5032   -1.8231    2.2593 C.ar    1  UNL1       -0.0485
      8 C          -2.6344   -2.7956    2.1088 C.3     1  UNL1       -0.0396
      9 C          -0.8313   -1.3703    1.1156 C.ar    1  UNL1       -0.0379
     10 C           0.9497   -0.8165   -1.1112 C.3     1  UNL1        0.0646
     11 C           1.7123   -0.1412   -2.2258 C.2     1  UNL1        0.1372
     12 O           1.2538    0.0287   -3.3548 O.2     1  UNL1       -0.2994
     13 H           0.4337    0.9393   -0.1576 H       1  UNL1        0.1465
     14 H           1.3999    0.7385    2.5465 H       1  UNL1        0.0639
     15 H           1.1685    0.7803    4.9272 H       1  UNL1        0.0278
     16 H           0.6607   -0.7711    5.6110 H       1  UNL1        0.0278
     17 H          -0.5047    0.5712    5.4681 H       1  UNL1        0.0278
     18 H          -1.6183   -1.7003    4.4091 H       1  UNL1        0.0623
     19 H          -3.0650   -3.0670    3.0772 H       1  UNL1        0.0278
     20 H          -2.2767   -3.7124    1.6281 H       1  UNL1        0.0278
     21 H          -3.4282   -2.3566    1.4956 H       1  UNL1        0.0278
     22 H          -1.1861   -1.7261    0.1534 H       1  UNL1        0.0639
     23 H          -0.0502   -1.0403   -1.4952 H       1  UNL1        0.0537
     24 H           1.4721   -1.7501   -0.8738 H       1  UNL1        0.0537
     25 H           2.7445    0.1600   -1.9880 H       1  UNL1        0.1043
@<TRIPOS>BOND
     1     1     2    1
     2     2     3   ar
     3     3     4   ar
     4     4     5    1
     5     4     6   ar
     6     6     7   ar
     7     7     8    1
     8     7     9   ar
     9     2     9   ar
    10     1    10    1
    11    10    11    1
    12    11    12    2
    13     1    13    1
    14     3    14    1
    15     5    15    1
    16     5    16    1
    17     5    17    1
    18     6    18    1
    19     8    19    1
    20     8    20    1
    21     8    21    1
    22     9    22    1
    23    10    23    1
    24    10    24    1
    25    11    25    1
