@<TRIPOS>MOLECULE
*****
 35 34 0 0 0
SMALL
GASTEIGER

@<TRIPOS>ATOM
      1 N           1.0179   -0.2535   -0.1368 N.3     1  UNL1       -0.3049
      2 C           0.6294    0.6720    0.9542 C.3     1  UNL1        0.0382
      3 C          -0.8961    0.9365    1.0448 C.3     1  UNL1        0.0111
      4 N          -1.4588    1.7694    2.1749 N.3     1  UNL1        0.3401
      5 C          -0.9981    3.2084    2.1154 C.3     1  UNL1        0.0033
      6 C          -1.5093    4.1410    3.2319 C.3     1  UNL1       -0.0203
      7 C           0.5373    3.3856    2.1820 C.3     1  UNL1       -0.0203
      8 C          -2.9702    1.5818    2.1743 C.3     1  UNL1        0.0033
      9 C          -3.3901    0.0980    2.3638 C.3     1  UNL1       -0.0203
     10 C          -3.7819    2.3311    3.2487 C.3     1  UNL1       -0.0203
     11 C           2.4924   -0.2966   -0.2066 C.3     1  UNL1        0.0520
     12 C           2.9277   -1.1408   -1.3829 C.2     1  UNL1        0.1340
     13 O           3.6147   -0.7114   -2.3062 O.2     1  UNL1       -0.2997
     14 H           0.6666    0.1296   -1.0171 H       1  UNL1        0.1225
     15 H           1.1522    1.5926    0.7286 H       1  UNL1        0.0477
     16 H           0.9861    0.2776    1.9118 H       1  UNL1        0.0477
     17 H          -1.2977   -0.0752    1.1249 H       1  UNL1        0.0843
     18 H          -1.2550    1.3401    0.0879 H       1  UNL1        0.0843
     19 H          -1.3364    3.6319    1.1599 H       1  UNL1        0.0861
     20 H          -1.4854    3.6512    4.2114 H       1  UNL1        0.0284
     21 H          -2.5026    4.5281    3.0171 H       1  UNL1        0.0284
     22 H          -0.9043    5.0510    3.3226 H       1  UNL1        0.0284
     23 H           1.0111    2.6134    2.7968 H       1  UNL1        0.0284
     24 H           0.8474    4.3445    2.6147 H       1  UNL1        0.0284
     25 H           0.9683    3.4083    1.1779 H       1  UNL1        0.0284
     26 H          -3.3516    1.9079    1.2011 H       1  UNL1        0.0861
     27 H          -2.9302   -0.3319    3.2600 H       1  UNL1        0.0284
     28 H          -3.1520   -0.5298    1.5017 H       1  UNL1        0.0284
     29 H          -4.4777    0.0066    2.4758 H       1  UNL1        0.0284
     30 H          -3.2856    2.3143    4.2231 H       1  UNL1        0.0284
     31 H          -4.7716    1.8863    3.3986 H       1  UNL1        0.0284
     32 H          -4.0041    3.3542    2.9425 H       1  UNL1        0.0284
     33 H           2.9113   -0.7434    0.7012 H       1  UNL1        0.0500
     34 H           2.9142    0.7072   -0.3371 H       1  UNL1        0.0500
     35 H           2.6134   -2.1976   -1.3549 H       1  UNL1        0.1040
@<TRIPOS>UNITY_ATOM_ATTR
4 1
charge 1
@<TRIPOS>BOND
     1     1     2    1
     2     2     3    1
     3     3     4    1
     4     4     5    1
     5     5     6    1
     6     5     7    1
     7     4     8    1
     8     8     9    1
     9     8    10    1
    10     1    11    1
    11    11    12    1
    12    12    13    2
    13     1    14    1
    14     2    15    1
    15     2    16    1
    16     3    17    1
    17     3    18    1
    18     5    19    1
    19     6    20    1
    20     6    21    1
    21     6    22    1
    22     7    23    1
    23     7    24    1
    24     7    25    1
    25     8    26    1
    26     9    27    1
    27     9    28    1
    28     9    29    1
    29    10    30    1
    30    10    31    1
    31    10    32    1
    32    11    33    1
    33    11    34    1
    34    12    35    1
