@<TRIPOS>MOLECULE
*****
 28 28 0 0 0
SMALL
GASTEIGER

@<TRIPOS>ATOM
      1 N           0.9932   -0.1876   -0.2763 N.pl3   1  UNL1       -0.3372
      2 C           0.2445   -0.9085    0.6630 C.ar    1  UNL1        0.0275
      3 C           0.7008   -1.0378    1.9800 C.ar    1  UNL1       -0.0406
      4 C          -0.0364   -1.7507    2.9390 C.ar    1  UNL1       -0.0566
      5 C          -1.2699   -2.3297    2.6079 C.ar    1  UNL1       -0.0447
      6 C          -2.0682   -3.1251    3.6260 C.3     1  UNL1       -0.0215
      7 C          -3.4410   -2.4918    3.8766 C.3     1  UNL1       -0.0587
      8 C          -2.2384   -4.5865    3.1941 C.3     1  UNL1       -0.0587
      9 C          -1.7559   -2.1378    1.3113 C.ar    1  UNL1       -0.0566
     10 C          -1.0204   -1.4224    0.3665 C.ar    1  UNL1       -0.0406
     11 C           0.8297   -0.5720   -1.6822 C.3     1  UNL1        0.0646
     12 C           2.0507   -0.2147   -2.5007 C.2     1  UNL1        0.1372
     13 O           3.1050    0.2191   -2.0324 O.2     1  UNL1       -0.2994
     14 H           1.9784   -0.0868   -0.0233 H       1  UNL1        0.1465
     15 H           1.6504   -0.5922    2.2740 H       1  UNL1        0.0636
     16 H           0.3657   -1.8462    3.9452 H       1  UNL1        0.0621
     17 H          -1.5257   -3.1274    4.5802 H       1  UNL1        0.0343
     18 H          -4.0345   -2.4180    2.9585 H       1  UNL1        0.0235
     19 H          -3.3354   -1.4814    4.2855 H       1  UNL1        0.0235
     20 H          -4.0186   -3.0878    4.5910 H       1  UNL1        0.0235
     21 H          -2.7875   -4.6746    2.2498 H       1  UNL1        0.0235
     22 H          -2.7965   -5.1482    3.9515 H       1  UNL1        0.0235
     23 H          -1.2674   -5.0760    3.0624 H       1  UNL1        0.0235
     24 H          -2.7229   -2.5384    1.0175 H       1  UNL1        0.0621
     25 H          -1.4641   -1.2767   -0.6132 H       1  UNL1        0.0636
     26 H          -0.0297   -0.0500   -2.1165 H       1  UNL1        0.0537
     27 H           0.6950   -1.6544   -1.7938 H       1  UNL1        0.0537
     28 H           1.9580   -0.4127   -3.5812 H       1  UNL1        0.1043
@<TRIPOS>BOND
     1     1     2    1
     2     2     3   ar
     3     3     4   ar
     4     4     5   ar
     5     5     6    1
     6     6     7    1
     7     6     8    1
     8     5     9   ar
     9     9    10   ar
    10     2    10   ar
    11     1    11    1
    12    11    12    1
    13    12    13    2
    14     1    14    1
    15     3    15    1
    16     4    16    1
    17     6    17    1
    18     7    18    1
    19     7    19    1
    20     7    20    1
    21     8    21    1
    22     8    22    1
    23     8    23    1
    24     9    24    1
    25    10    25    1
    26    11    26    1
    27    11    27    1
    28    12    28    1
