@<TRIPOS>MOLECULE
*****
 43 43 0 0 0
SMALL
GASTEIGER

@<TRIPOS>ATOM
      1 N           1.1628    0.2948    0.4417 N.3     1  UNL1       -0.3049
      2 C           0.6260   -0.8828    1.1181 C.3     1  UNL1        0.0367
      3 C          -0.9241   -0.9888    1.0784 C.3     1  UNL1       -0.0169
      4 N          -1.4792   -2.3210    1.7100 N.4     1  UNL1        0.2470
      5 C          -0.9903   -3.5504    0.8702 C.3     1  UNL1       -0.0041
      6 C          -1.3800   -3.6319   -0.5902 C.ar    1  UNL1       -0.0028
      7 C          -0.5480   -3.1069   -1.5930 C.ar    1  UNL1       -0.0535
      8 C          -0.8811   -3.2347   -2.9445 C.ar    1  UNL1       -0.0613
      9 C          -2.0489   -3.8920   -3.3190 C.ar    1  UNL1       -0.0617
     10 C          -2.8861   -4.4201   -2.3427 C.ar    1  UNL1       -0.0613
     11 C          -2.5527   -4.2953   -0.9913 C.ar    1  UNL1       -0.0535
     12 C          -0.9604   -2.5036    3.1614 C.3     1  UNL1       -0.0326
     13 C          -1.4288   -1.4209    4.1236 C.3     1  UNL1       -0.0244
     14 C          -3.0286   -2.2404    1.6834 C.3     1  UNL1       -0.0326
     15 C          -3.7174   -3.4402    2.3282 C.3     1  UNL1       -0.0244
     16 C           2.6357    0.2515    0.4147 C.3     1  UNL1        0.0520
     17 C           3.2010    1.5602   -0.1061 C.2     1  UNL1        0.1340
     18 O           2.6223    2.6388   -0.0044 O.2     1  UNL1       -0.2997
     19 H           0.8876    1.1694    0.8976 H       1  UNL1        0.1225
     20 H           0.9718   -0.8692    2.1548 H       1  UNL1        0.0477
     21 H           1.0600   -1.7609    0.6360 H       1  UNL1        0.0477
     22 H          -1.3052   -0.9365    0.0532 H       1  UNL1        0.0828
     23 H          -1.3749   -0.1576    1.6319 H       1  UNL1        0.0828
     24 H          -1.3396   -4.4488    1.3916 H       1  UNL1        0.0868
     25 H           0.1008   -3.5838    0.9629 H       1  UNL1        0.0868
     26 H           0.3880   -2.6091   -1.3526 H       1  UNL1        0.0622
     27 H          -0.2203   -2.8353   -3.7118 H       1  UNL1        0.0618
     28 H          -2.2987   -4.0054   -4.3720 H       1  UNL1        0.0618
     29 H          -3.7927   -4.9456   -2.6373 H       1  UNL1        0.0618
     30 H          -3.2208   -4.7558   -0.2690 H       1  UNL1        0.0622
     31 H           0.1316   -2.5350    3.1179 H       1  UNL1        0.0812
     32 H          -1.2914   -3.4871    3.5055 H       1  UNL1        0.0812
     33 H          -1.2394   -0.4081    3.7598 H       1  UNL1        0.0281
     34 H          -0.8963   -1.5236    5.0758 H       1  UNL1        0.0281
     35 H          -2.4958   -1.5113    4.3488 H       1  UNL1        0.0281
     36 H          -3.3367   -2.1249    0.6400 H       1  UNL1        0.0812
     37 H          -3.3167   -1.3238    2.2093 H       1  UNL1        0.0812
     38 H          -3.4318   -4.3931    1.8805 H       1  UNL1        0.0281
     39 H          -4.8022   -3.3464    2.2126 H       1  UNL1        0.0281
     40 H          -3.5165   -3.5072    3.4008 H       1  UNL1        0.0281
     41 H           2.9769   -0.5454   -0.2553 H       1  UNL1        0.0500
     42 H           3.0623    0.0907    1.4134 H       1  UNL1        0.0500
     43 H           4.2302    1.5037   -0.5063 H       1  UNL1        0.1040
@<TRIPOS>UNITY_ATOM_ATTR
4 1
charge 1
@<TRIPOS>BOND
     1     1     2    1
     2     2     3    1
     3     3     4    1
     4     4     5    1
     5     5     6    1
     6     6     7   ar
     7     7     8   ar
     8     8     9   ar
     9     9    10   ar
    10    10    11   ar
    11     6    11   ar
    12     4    12    1
    13    12    13    1
    14     4    14    1
    15    14    15    1
    16     1    16    1
    17    16    17    1
    18    17    18    2
    19     1    19    1
    20     2    20    1
    21     2    21    1
    22     3    22    1
    23     3    23    1
    24     5    24    1
    25     5    25    1
    26     7    26    1
    27     8    27    1
    28     9    28    1
    29    10    29    1
    30    11    30    1
    31    12    31    1
    32    12    32    1
    33    13    33    1
    34    13    34    1
    35    13    35    1
    36    14    36    1
    37    14    37    1
    38    15    38    1
    39    15    39    1
    40    15    40    1
    41    16    41    1
    42    16    42    1
    43    17    43    1
