@<TRIPOS>MOLECULE
*****
 27 27 0 0 0
SMALL
GASTEIGER

@<TRIPOS>ATOM
      1 N           1.0793   -0.1653    0.2411 N.pl3   1  UNL1       -0.3370
      2 C           0.3564    0.9582    0.6816 C.ar    1  UNL1        0.0344
      3 C           0.7779    2.2834    0.5091 C.ar    1  UNL1        0.0011
      4 C          -0.0455    3.3509    0.8883 C.ar    1  UNL1        0.1253
      5 O           0.2500    4.6820    0.7592 O.3     1  UNL1       -0.4949
      6 C           1.4959    5.0223    0.1654 C.3     1  UNL1        0.0788
      7 C          -1.3044    3.0971    1.4385 C.ar    1  UNL1        0.0219
      8 C          -1.7586    1.7895    1.5850 C.ar    1  UNL1        0.1253
      9 O          -2.9767    1.4107    2.0782 O.3     1  UNL1       -0.4949
     10 C          -3.8397    2.4477    2.5276 C.3     1  UNL1        0.0788
     11 C          -0.9307    0.7359    1.1909 C.ar    1  UNL1        0.0011
     12 C           2.5413   -0.0749    0.1953 C.3     1  UNL1        0.0646
     13 C           3.1113   -1.4057   -0.2463 C.2     1  UNL1        0.1372
     14 O           3.8926   -1.5334   -1.1876 O.2     1  UNL1       -0.2994
     15 H           0.6992   -0.4490   -0.6650 H       1  UNL1        0.1465
     16 H           1.7416    2.4832    0.0578 H       1  UNL1        0.0673
     17 H           1.5412    6.1134    0.0869 H       1  UNL1        0.0660
     18 H           1.5800    4.6159   -0.8485 H       1  UNL1        0.0660
     19 H           2.3295    4.6964    0.7942 H       1  UNL1        0.0660
     20 H          -1.9132    3.9482    1.7308 H       1  UNL1        0.0691
     21 H          -4.7886    1.9894    2.8209 H       1  UNL1        0.0660
     22 H          -4.0552    3.1655    1.7288 H       1  UNL1        0.0660
     23 H          -3.4214    2.9481    3.4073 H       1  UNL1        0.0660
     24 H          -1.2926   -0.2849    1.2987 H       1  UNL1        0.0673
     25 H           2.9425    0.1375    1.1924 H       1  UNL1        0.0537
     26 H           2.8809    0.6869   -0.5112 H       1  UNL1        0.0537
     27 H           2.8098   -2.2777    0.3585 H       1  UNL1        0.1043
@<TRIPOS>BOND
     1     1     2    1
     2     2     3   ar
     3     3     4   ar
     4     4     5    1
     5     5     6    1
     6     4     7   ar
     7     7     8   ar
     8     8     9    1
     9     9    10    1
    10     8    11   ar
    11     2    11   ar
    12     1    12    1
    13    12    13    1
    14    13    14    2
    15     1    15    1
    16     3    16    1
    17     6    17    1
    18     6    18    1
    19     6    19    1
    20     7    20    1
    21    10    21    1
    22    10    22    1
    23    10    23    1
    24    11    24    1
    25    12    25    1
    26    12    26    1
    27    13    27    1
