@<TRIPOS>MOLECULE
*****
 36 35 0 0 0
SMALL
GASTEIGER

@<TRIPOS>ATOM
      1 N          -1.1052   -1.3744    0.9117 N.3     1  UNL1       -0.3049
      2 C          -1.5920   -1.3871   -0.4668 C.3     1  UNL1        0.0367
      3 C          -1.0581   -0.2300   -1.3515 C.3     1  UNL1       -0.0173
      4 N          -1.5871   -0.3038   -2.8383 N.4     1  UNL1        0.2436
      5 C          -1.0841    0.9280   -3.6352 C.3     1  UNL1       -0.0330
      6 C           0.4289    1.0625   -3.7031 C.3     1  UNL1       -0.0244
      7 C          -1.0702   -1.6342   -3.4605 C.3     1  UNL1       -0.0330
      8 C          -1.3582   -1.8020   -4.9438 C.3     1  UNL1       -0.0244
      9 C          -3.1446   -0.3102   -2.8765 C.3     1  UNL1       -0.0330
     10 C          -3.7971    0.8722   -2.1740 C.3     1  UNL1       -0.0244
     11 C          -1.5819   -2.5777    1.6245 C.3     1  UNL1        0.0520
     12 C          -1.2157   -2.5101    3.0951 C.2     1  UNL1        0.1340
     13 O          -1.0540   -1.4558    3.7055 O.2     1  UNL1       -0.2997
     14 H          -1.4232   -0.5527    1.4367 H       1  UNL1        0.1225
     15 H          -2.6838   -1.3757   -0.4498 H       1  UNL1        0.0477
     16 H          -1.2653   -2.3336   -0.9040 H       1  UNL1        0.0477
     17 H           0.0349   -0.2805   -1.4013 H       1  UNL1        0.0828
     18 H          -1.3382    0.7511   -0.9544 H       1  UNL1        0.0828
     19 H          -1.4949    1.8195   -3.1534 H       1  UNL1        0.0812
     20 H          -1.5074    0.8573   -4.6424 H       1  UNL1        0.0812
     21 H           0.8652    1.2582   -2.7197 H       1  UNL1        0.0281
     22 H           0.6840    1.9207   -4.3357 H       1  UNL1        0.0281
     23 H           0.9132    0.1854   -4.1376 H       1  UNL1        0.0281
     24 H          -1.5666   -2.4488   -2.9260 H       1  UNL1        0.0812
     25 H           0.0052   -1.6979   -3.2640 H       1  UNL1        0.0812
     26 H          -2.3869   -1.5582   -5.2153 H       1  UNL1        0.0281
     27 H          -1.1998   -2.8511   -5.2199 H       1  UNL1        0.0281
     28 H          -0.6811   -1.2016   -5.5566 H       1  UNL1        0.0281
     29 H          -3.4800   -1.2539   -2.4361 H       1  UNL1        0.0812
     30 H          -3.4476   -0.3044   -3.9272 H       1  UNL1        0.0812
     31 H          -3.4844    0.9802   -1.1333 H       1  UNL1        0.0281
     32 H          -4.8836    0.7312   -2.1676 H       1  UNL1        0.0281
     33 H          -3.6063    1.8126   -2.6983 H       1  UNL1        0.0281
     34 H          -1.1062   -3.4717    1.2030 H       1  UNL1        0.0500
     35 H          -2.6679   -2.6854    1.5630 H       1  UNL1        0.0500
     36 H          -1.1915   -3.4795    3.6186 H       1  UNL1        0.1040
@<TRIPOS>UNITY_ATOM_ATTR
4 1
charge 1
@<TRIPOS>BOND
     1     1     2    1
     2     2     3    1
     3     3     4    1
     4     4     5    1
     5     5     6    1
     6     4     7    1
     7     7     8    1
     8     4     9    1
     9     9    10    1
    10     1    11    1
    11    11    12    1
    12    12    13    2
    13     1    14    1
    14     2    15    1
    15     2    16    1
    16     3    17    1
    17     3    18    1
    18     5    19    1
    19     5    20    1
    20     6    21    1
    21     6    22    1
    22     6    23    1
    23     7    24    1
    24     7    25    1
    25     8    26    1
    26     8    27    1
    27     8    28    1
    28     9    29    1
    29     9    30    1
    30    10    31    1
    31    10    32    1
    32    10    33    1
    33    11    34    1
    34    11    35    1
    35    12    36    1
