@<TRIPOS>MOLECULE
*****
 22 22 0 0 0
SMALL
GASTEIGER

@<TRIPOS>ATOM
      1 N           1.0035    0.0778    0.1773 N.pl3   1  UNL1       -0.3372
      2 C           0.3454   -1.1687    0.1594 C.ar    1  UNL1        0.0275
      3 C           0.7305   -2.1329    1.1005 C.ar    1  UNL1       -0.0406
      4 C           0.0700   -3.3649    1.1915 C.ar    1  UNL1       -0.0571
      5 C          -1.0183   -3.6449    0.3618 C.ar    1  UNL1       -0.0503
      6 C          -1.7415   -4.9563    0.4301 C.3     1  UNL1       -0.0397
      7 C          -1.4367   -2.6709   -0.5467 C.ar    1  UNL1       -0.0571
      8 C          -0.7705   -1.4441   -0.6368 C.ar    1  UNL1       -0.0406
      9 C           1.0009    0.8293   -1.0858 C.3     1  UNL1        0.0646
     10 C           1.7719    2.1206   -0.9220 C.2     1  UNL1        0.1372
     11 O           1.3067    3.2296   -1.1749 O.2     1  UNL1       -0.2994
     12 H           0.5823    0.6333    0.9257 H       1  UNL1        0.1465
     13 H           1.5716   -1.9348    1.7616 H       1  UNL1        0.0636
     14 H           0.4149   -4.0988    1.9164 H       1  UNL1        0.0621
     15 H          -1.3233   -5.6090    1.2027 H       1  UNL1        0.0278
     16 H          -1.6642   -5.4766   -0.5304 H       1  UNL1        0.0278
     17 H          -2.7986   -4.7921    0.6636 H       1  UNL1        0.0278
     18 H          -2.2956   -2.8548   -1.1891 H       1  UNL1        0.0621
     19 H          -1.1640   -0.7153   -1.3365 H       1  UNL1        0.0636
     20 H          -0.0142    1.0932   -1.3989 H       1  UNL1        0.0537
     21 H           1.4918    0.2488   -1.8744 H       1  UNL1        0.0537
     22 H           2.8186    2.0104   -0.5921 H       1  UNL1        0.1043
@<TRIPOS>BOND
     1     1     2    1
     2     2     3   ar
     3     3     4   ar
     4     4     5   ar
     5     5     6    1
     6     5     7   ar
     7     7     8   ar
     8     2     8   ar
     9     1     9    1
    10     9    10    1
    11    10    11    2
    12     1    12    1
    13     3    13    1
    14     4    14    1
    15     6    15    1
    16     6    16    1
    17     6    17    1
    18     7    18    1
    19     8    19    1
    20     9    20    1
    21     9    21    1
    22    10    22    1
