@<TRIPOS>MOLECULE
*****
 27 26 0 0 0
SMALL
GASTEIGER

@<TRIPOS>ATOM
      1 N           0.9814   -0.0375    0.1017 N.3     1  UNL1       -0.3049
      2 C           0.4884   -0.6278   -1.1342 C.3     1  UNL1        0.0367
      3 C          -1.0522   -0.6473   -1.2175 C.3     1  UNL1       -0.0180
      4 N          -1.5737   -1.2613   -2.5394 N.4     1  UNL1        0.2378
      5 C          -1.0780   -0.4663   -3.7444 C.3     1  UNL1       -0.0418
      6 C          -1.1585   -2.7214   -2.6704 C.3     1  UNL1       -0.0418
      7 C          -3.1007   -1.1953   -2.5194 C.3     1  UNL1       -0.0418
      8 C           2.4554   -0.0427    0.1055 C.3     1  UNL1        0.0520
      9 C           2.9699    0.5635    1.3921 C.2     1  UNL1        0.1340
     10 O           2.3830    0.4787    2.4650 O.2     1  UNL1       -0.2997
     11 H           0.6678   -0.5485    0.9358 H       1  UNL1        0.1225
     12 H           0.8805   -1.6459   -1.2215 H       1  UNL1        0.0477
     13 H           0.8856   -0.0377   -1.9654 H       1  UNL1        0.0477
     14 H          -1.4570    0.3711   -1.1560 H       1  UNL1        0.0827
     15 H          -1.4759   -1.2443   -0.4008 H       1  UNL1        0.0827
     16 H           0.0089   -0.5558   -3.8108 H       1  UNL1        0.0778
     17 H          -1.3749    0.5790   -3.6160 H       1  UNL1        0.0778
     18 H          -1.5301   -0.8884   -4.6456 H       1  UNL1        0.0778
     19 H          -0.0696   -2.7776   -2.7480 H       1  UNL1        0.0778
     20 H          -1.6101   -3.1299   -3.5772 H       1  UNL1        0.0778
     21 H          -1.5143   -3.2630   -1.7880 H       1  UNL1        0.0778
     22 H          -3.4019   -0.1466   -2.4364 H       1  UNL1        0.0778
     23 H          -3.4596   -1.7693   -1.6608 H       1  UNL1        0.0778
     24 H          -3.4757   -1.6274   -3.4524 H       1  UNL1        0.0778
     25 H           2.8345    0.5591   -0.7268 H       1  UNL1        0.0500
     26 H           2.8538   -1.0592    0.0272 H       1  UNL1        0.0500
     27 H           3.9707    1.0264    1.3213 H       1  UNL1        0.1040
@<TRIPOS>UNITY_ATOM_ATTR
4 1
charge 1
@<TRIPOS>BOND
     1     1     2    1
     2     2     3    1
     3     3     4    1
     4     4     5    1
     5     4     6    1
     6     4     7    1
     7     1     8    1
     8     8     9    1
     9     9    10    2
    10     1    11    1
    11     2    12    1
    12     2    13    1
    13     3    14    1
    14     3    15    1
    15     5    16    1
    16     5    17    1
    17     5    18    1
    18     6    19    1
    19     6    20    1
    20     6    21    1
    21     7    22    1
    22     7    23    1
    23     7    24    1
    24     8    25    1
    25     8    26    1
    26     9    27    1
