@<TRIPOS>MOLECULE
*****
 23 23 0 0 0
SMALL
GASTEIGER

@<TRIPOS>ATOM
      1 N           1.1163    0.2978   -0.1172 N.pl3   1  UNL1       -0.3372
      2 C           0.4752   -0.3887   -1.1599 C.ar    1  UNL1        0.0277
      3 C           0.8826   -1.6348   -1.6462 C.ar    1  UNL1       -0.0374
      4 C           0.1690   -2.2875   -2.6624 C.ar    1  UNL1       -0.0182
      5 C          -0.9764   -1.7065   -3.2005 C.ar    1  UNL1        0.1202
      6 O          -1.7377   -2.2127   -4.2162 O.3     1  UNL1       -0.4951
      7 C          -1.2962   -3.4286   -4.8069 C.3     1  UNL1        0.0788
      8 C          -1.4245   -0.4929   -2.6793 C.ar    1  UNL1       -0.0182
      9 C          -0.7162    0.1471   -1.6578 C.ar    1  UNL1       -0.0374
     10 C           2.5543    0.0788    0.0530 C.3     1  UNL1        0.0646
     11 C           3.0653    0.9545    1.1774 C.2     1  UNL1        0.1372
     12 O           3.2400    0.5526    2.3237 O.2     1  UNL1       -0.2994
     13 H           0.6177    0.1026    0.7551 H       1  UNL1        0.1465
     14 H           1.7571   -2.1384   -1.2449 H       1  UNL1        0.0637
     15 H           0.5374   -3.2485   -3.0053 H       1  UNL1        0.0655
     16 H          -1.9327   -3.6286   -5.6748 H       1  UNL1        0.0660
     17 H          -1.4113   -4.2607   -4.1054 H       1  UNL1        0.0660
     18 H          -0.2651   -3.3544   -5.1674 H       1  UNL1        0.0660
     19 H          -2.3296   -0.0376   -3.0734 H       1  UNL1        0.0655
     20 H          -1.0890    1.0926   -1.2686 H       1  UNL1        0.0637
     21 H           3.1029    0.3517   -0.8560 H       1  UNL1        0.0537
     22 H           2.7833   -0.9601    0.3130 H       1  UNL1        0.0537
     23 H           3.2221    2.0146    0.9179 H       1  UNL1        0.1043
@<TRIPOS>BOND
     1     1     2    1
     2     2     3   ar
     3     3     4   ar
     4     4     5   ar
     5     5     6    1
     6     6     7    1
     7     5     8   ar
     8     8     9   ar
     9     2     9   ar
    10     1    10    1
    11    10    11    1
    12    11    12    2
    13     1    13    1
    14     3    14    1
    15     4    15    1
    16     7    16    1
    17     7    17    1
    18     7    18    1
    19     8    19    1
    20     9    20    1
    21    10    21    1
    22    10    22    1
    23    11    23    1
