@<TRIPOS>MOLECULE
*****
 35 34 0 0 0
SMALL
GASTEIGER

@<TRIPOS>ATOM
      1 N           1.1142   -0.0681   -0.2271 N.3     1  UNL1       -0.3049
      2 C           0.7186   -0.5454    1.1170 C.3     1  UNL1        0.0382
      3 C          -0.8098   -0.4917    1.3876 C.3     1  UNL1        0.0111
      4 N          -1.3687   -1.0613    2.6719 N.3     1  UNL1        0.3401
      5 C          -0.9030   -0.2972    3.8905 C.3     1  UNL1        0.0033
      6 C          -1.4140   -0.8051    5.2550 C.3     1  UNL1       -0.0203
      7 C           0.6316   -0.2711    4.0790 C.3     1  UNL1       -0.0203
      8 C          -2.8782   -1.1563    2.5115 C.3     1  UNL1        0.0033
      9 C          -3.2992   -2.0490    1.3135 C.3     1  UNL1       -0.0203
     10 C          -3.6896   -1.7204    3.6914 C.3     1  UNL1       -0.0203
     11 C           2.5917   -0.0334   -0.2878 C.3     1  UNL1        0.0520
     12 C           3.0416    0.5563   -1.6046 C.2     1  UNL1        0.1340
     13 O           3.7491    1.5563   -1.6929 O.2     1  UNL1       -0.2997
     14 H           0.7673    0.8866   -0.3405 H       1  UNL1        0.1225
     15 H           1.2366    0.1138    1.8020 H       1  UNL1        0.0477
     16 H           1.0757   -1.5716    1.2600 H       1  UNL1        0.0477
     17 H          -1.2071   -1.0671    0.5467 H       1  UNL1        0.0843
     18 H          -1.1661    0.5369    1.2616 H       1  UNL1        0.0843
     19 H          -1.2389    0.7429    3.7864 H       1  UNL1        0.0861
     20 H          -1.3873   -1.8973    5.3150 H       1  UNL1        0.0284
     21 H          -2.4086   -0.4281    5.4844 H       1  UNL1        0.0284
     22 H          -0.8095   -0.4305    6.0900 H       1  UNL1        0.0284
     23 H           1.1046   -1.1888    3.7119 H       1  UNL1        0.0284
     24 H           0.9426   -0.1748    5.1252 H       1  UNL1        0.0284
     25 H           1.0659    0.6114    3.6032 H       1  UNL1        0.0284
     26 H          -3.2620   -0.1448    2.3169 H       1  UNL1        0.0861
     27 H          -2.8406   -3.0413    1.3811 H       1  UNL1        0.0284
     28 H          -3.0620   -1.6093    0.3428 H       1  UNL1        0.0284
     29 H          -4.3875   -2.1916    1.2890 H       1  UNL1        0.0284
     30 H          -3.1938   -2.5764    4.1594 H       1  UNL1        0.0284
     31 H          -4.6815   -2.0731    3.3804 H       1  UNL1        0.0284
     32 H          -3.9123   -0.9500    4.4328 H       1  UNL1        0.0284
     33 H           3.0060   -1.0442   -0.2132 H       1  UNL1        0.0500
     34 H           3.0082    0.5834    0.5169 H       1  UNL1        0.0500
     35 H           2.7204    0.0083   -2.5075 H       1  UNL1        0.1040
@<TRIPOS>UNITY_ATOM_ATTR
4 1
charge 1
@<TRIPOS>BOND
     1     1     2    1
     2     2     3    1
     3     3     4    1
     4     4     5    1
     5     5     6    1
     6     5     7    1
     7     4     8    1
     8     8     9    1
     9     8    10    1
    10     1    11    1
    11    11    12    1
    12    12    13    2
    13     1    14    1
    14     2    15    1
    15     2    16    1
    16     3    17    1
    17     3    18    1
    18     5    19    1
    19     6    20    1
    20     6    21    1
    21     6    22    1
    22     7    23    1
    23     7    24    1
    24     7    25    1
    25     8    26    1
    26     9    27    1
    27     9    28    1
    28     9    29    1
    29    10    30    1
    30    10    31    1
    31    10    32    1
    32    11    33    1
    33    11    34    1
    34    12    35    1
