@<TRIPOS>MOLECULE
smiles:CC(=O)N(CC(=O)O)CC(=O)N(C)
25 24 1 0 0
SMALL
NO_CHARGES


@<TRIPOS>ATOM
      1 C1          0.3498    2.4811   -0.8016 C.3       1 04B    0.0000
      2 C2         -0.5085    1.6070    0.0761 C.2       1 04B    0.0000
      3 O1         -1.3113    2.1102    0.8333 O.2       1 04B    0.0000
      4 N1         -0.3839    0.2662    0.0197 N.am      1 04B    0.0000
      5 C3         -1.2977   -0.5871    0.7833 C.3       1 04B    0.0000
      6 C4         -2.5018   -0.9158   -0.0611 C.2       1 04B    0.0000
      7 O2         -2.5879   -0.4819   -1.1854 O.2       1 04B    0.0000
      8 O3         -3.4787   -1.6908    0.4358 O.3       1 04B    0.0000
      9 C5          0.6652   -0.3379   -0.8053 C.3       1 04B    0.0000
     10 C6          1.9499   -0.3977   -0.0199 C.2       1 04B    0.0000
     11 O4          1.9857    0.0229    1.1171 O.2       1 04B    0.0000
     12 N2          3.0591   -0.9186   -0.5809 N.am      1 04B    0.0000
     13 C7          4.3081   -0.9767    0.1827 C.3       1 04B    0.0000
     14 H1          1.3042    2.6656   -0.3084 H         1 04B    0.0000
     15 H2          0.5238    1.9804   -1.7540 H         1 04B    0.0000
     16 H3         -0.1577    3.4296   -0.9771 H         1 04B    0.0000
     17 H4         -0.7867   -1.5087    1.0619 H         1 04B    0.0000
     18 H5         -1.6176   -0.0626    1.6837 H         1 04B    0.0000
     19 H6         -4.2513   -1.9017   -0.1060 H         1 04B    0.0000
     20 H7          0.3668   -1.3465   -1.0913 H         1 04B    0.0000
     21 H8          0.8148    0.2645   -1.7013 H         1 04B    0.0000
     22 H9          3.0305   -1.2549   -1.4903 H         1 04B    0.0000
     23 H10         5.0886   -1.4262   -0.4312 H         1 04B    0.0000
     24 H11         4.6064    0.0320    0.4686 H         1 04B    0.0000
     25 H12         4.1584   -1.5791    1.0787 H         1 04B    0.0000
@<TRIPOS>BOND
     1    1    2 1
     2    2    3 2
     3    2    4 am
     4    4    5 1
     5    5    6 1
     6    6    7 2
     7    6    8 1
     8    4    9 1
     9    9   10 1
    10   10   11 2
    11   10   12 am
    12   12   13 1
    13    1   14 1
    14    1   15 1
    15    1   16 1
    16    5   17 1
    17    5   18 1
    18    8   19 1
    19    9   20 1
    20    9   21 1
    21   12   22 1
    22   13   23 1
    23   13   24 1
    24   13   25 1
@<TRIPOS>SUBSTRUCTURE
     1 04B     1 RESIDUE           4 A     04B     0 ROOT
