@<TRIPOS>MOLECULE
smiles:CC(=O)N(c1cc(OC)cc(OC)c1)CC(=O)N(C)
37 37 1 0 0
SMALL
NO_CHARGES


@<TRIPOS>ATOM
      1 C1          2.8156    2.6451   -0.5923 C.3       1 06E    0.0000
      2 C2          1.4488    2.1137   -0.2451 C.2       1 06E    0.0000
      3 O1          0.6365    2.8352    0.2939 O.2       1 06E    0.0000
      4 N1          1.1291    0.8365   -0.5335 N.am      1 06E    0.0000
      5 C3         -0.1804    0.3827   -0.3415 C.ar      1 06E    0.0000
      6 C4         -1.1861    1.2820   -0.0149 C.ar      1 06E    0.0000
      7 C5         -2.4836    0.8317    0.1748 C.ar      1 06E    0.0000
      8 O2         -3.4683    1.7119    0.4946 O.3       1 06E    0.0000
      9 C6         -4.6736    0.9550    0.6221 C.3       1 06E    0.0000
     10 C7         -2.7769   -0.5169    0.0378 C.ar      1 06E    0.0000
     11 C8         -1.7724   -1.4160   -0.2881 C.ar      1 06E    0.0000
     12 O3         -2.0607   -2.7373   -0.4221 O.3       1 06E    0.0000
     13 C9         -3.4597   -2.8825   -0.1696 C.3       1 06E    0.0000
     14 C10        -0.4755   -0.9663   -0.4832 C.ar      1 06E    0.0000
     15 C11         2.1528   -0.0765   -1.0481 C.3       1 06E    0.0000
     16 C12         2.9158   -0.6767    0.1045 C.2       1 06E    0.0000
     17 O4          2.6324   -0.3718    1.2437 O.2       1 06E    0.0000
     18 N2          3.9131   -1.5523   -0.1306 N.am      1 06E    0.0000
     19 C13         4.6548   -2.1358    0.9900 C.3       1 06E    0.0000
     20 H1          3.4728    2.5500    0.2721 H         1 06E    0.0000
     21 H2          3.2263    2.0748   -1.4255 H         1 06E    0.0000
     22 H3          2.7362    3.6949   -0.8747 H         1 06E    0.0000
     23 H4         -0.9579    2.3322    0.0918 H         1 06E    0.0000
     24 H5         -5.4962    1.6222    0.8794 H         1 06E    0.0000
     25 H6         -4.8916    0.4570   -0.3228 H         1 06E    0.0000
     26 H7         -4.5524    0.2082    1.4068 H         1 06E    0.0000
     27 H8         -3.7878   -0.8672    0.1853 H         1 06E    0.0000
     28 H9         -3.7393   -3.9316   -0.2661 H         1 06E    0.0000
     29 H10        -3.6844   -2.5380    0.8398 H         1 06E    0.0000
     30 H11        -4.0225   -2.2888   -0.8898 H         1 06E    0.0000
     31 H12         0.3065   -1.6666   -0.7369 H         1 06E    0.0000
     32 H13         1.6756   -0.8714   -1.6212 H         1 06E    0.0000
     33 H14         2.8396    0.4733   -1.6916 H         1 06E    0.0000
     34 H15         4.1397   -1.7961   -1.0416 H         1 06E    0.0000
     35 H16         5.4164   -2.8151    0.6071 H         1 06E    0.0000
     36 H17         5.1320   -1.3408    1.5631 H         1 06E    0.0000
     37 H18         3.9679   -2.6856    1.6334 H         1 06E    0.0000
@<TRIPOS>BOND
     1    1    2 1
     2    2    3 2
     3    2    4 am
     4    4    5 1
     5    5    6 ar
     6    6    7 ar
     7    7    8 1
     8    8    9 1
     9    7   10 ar
    10   10   11 ar
    11   11   12 1
    12   12   13 1
    13   11   14 ar
    14    5   14 ar
    15    4   15 1
    16   15   16 1
    17   16   17 2
    18   16   18 am
    19   18   19 1
    20    1   20 1
    21    1   21 1
    22    1   22 1
    23    6   23 1
    24    9   24 1
    25    9   25 1
    26    9   26 1
    27   10   27 1
    28   13   28 1
    29   13   29 1
    30   13   30 1
    31   14   31 1
    32   15   32 1
    33   15   33 1
    34   18   34 1
    35   19   35 1
    36   19   36 1
    37   19   37 1
@<TRIPOS>SUBSTRUCTURE
     1 06E     1 RESIDUE           4 A     06E     0 ROOT
