@<TRIPOS>MOLECULE
smiles:CC(=O)N(c1cc(N(=O)=O)c(O)cc1)CC(=O)N(C)
32 32 1 0 0
SMALL
NO_CHARGES


@<TRIPOS>ATOM
      1 C1          2.3498    2.7923   -0.5367 C.3       1 0EF    0.0000
      2 C2          1.1354    1.9500   -0.2418 C.2       1 0EF    0.0000
      3 O1          0.1680    2.4479    0.2837 O.2       1 0EF    0.0000
      4 N1          1.1285    0.6414   -0.5641 N.am      1 0EF    0.0000
      5 C3          0.0116   -0.0705   -0.4325 C.ar      1 0EF    0.0000
      6 C4         -1.2687    0.6079   -0.1128 C.ar      1 0EF    0.0000
      7 C5         -2.3927   -0.1115    0.0189 C.ar      1 0EF    0.0000
      8 N2         -3.6702    0.5646    0.3378 N.2       1 0EF    0.0000
      9 O2         -3.7003    1.7739    0.4805 O.co2     1 0EF    0.0000
     10 O3         -4.6915   -0.0883    0.4575 O.co2     1 0EF    0.0000
     11 C6         -2.3571   -1.5800   -0.1548 C.ar      1 0EF    0.0000
     12 O4         -3.3856   -2.2353   -0.0344 O.3       1 0EF    0.0000
     13 C7         -1.0824   -2.2586   -0.4740 C.ar      1 0EF    0.0000
     14 C8          0.0436   -1.5430   -0.6113 C.ar      1 0EF    0.0000
     15 C9          2.3503    0.0025   -1.0594 C.3       1 0EF    0.0000
     16 C10         3.1964   -0.4361    0.1080 C.2       1 0EF    0.0000
     17 O5          2.8163   -0.2348    1.2420 O.2       1 0EF    0.0000
     18 N3          4.3756   -1.0520   -0.1082 N.am      1 0EF    0.0000
     19 C11         5.1982   -1.4784    1.0266 C.3       1 0EF    0.0000
     20 H1          2.9879    2.8315    0.3461 H         1 0EF    0.0000
     21 H2          2.9039    2.3530   -1.3662 H         1 0EF    0.0000
     22 H3          2.0360    3.8015   -0.8033 H         1 0EF    0.0000
     23 H4         -1.2953    1.6801    0.0141 H         1 0EF    0.0000
     24 H5         -3.9463   -2.4009   -0.8047 H         1 0EF    0.0000
     25 H6         -1.0590   -3.3309   -0.6003 H         1 0EF    0.0000
     26 H7          0.9741   -2.0390   -0.8447 H         1 0EF    0.0000
     27 H8          2.0870   -0.8656   -1.6637 H         1 0EF    0.0000
     28 H9          2.9105    0.7124   -1.6678 H         1 0EF    0.0000
     29 H10         4.6796   -1.2130   -1.0152 H         1 0EF    0.0000
     30 H11         6.1072   -1.9538    0.6581 H         1 0EF    0.0000
     31 H12         5.4614   -0.6103    1.6310 H         1 0EF    0.0000
     32 H13         4.6379   -2.1883    1.6350 H         1 0EF    0.0000
@<TRIPOS>BOND
     1    1    2 1
     2    2    3 2
     3    2    4 am
     4    4    5 1
     5    5    6 ar
     6    6    7 ar
     7    7    8 1
     8    8    9 2
     9    8   10 2
    10    7   11 ar
    11   11   12 1
    12   11   13 ar
    13   13   14 ar
    14    5   14 ar
    15    4   15 1
    16   15   16 1
    17   16   17 2
    18   16   18 am
    19   18   19 1
    20    1   20 1
    21    1   21 1
    22    1   22 1
    23    6   23 1
    24   12   24 1
    25   13   25 1
    26   14   26 1
    27   15   27 1
    28   15   28 1
    29   18   29 1
    30   19   30 1
    31   19   31 1
    32   19   32 1
@<TRIPOS>SUBSTRUCTURE
     1 0EF     1 RESIDUE           4 A     0EF     0 ROOT
