@<TRIPOS>MOLECULE
smiles:CC(=O)N([C@@H](C)c1ccccc1)CCC(=O)N(C)
38 38 1 0 0
SMALL
NO_CHARGES


@<TRIPOS>ATOM
      1 C1          0.5588   -2.5986   -1.5843 C.3       1 123    0.0000
      2 C2         -0.5179   -1.9809   -0.7297 C.2       1 123    0.0000
      3 O1         -1.6852   -2.1313   -1.0223 O.2       1 123    0.0000
      4 N1         -0.1835   -1.2613    0.3598 N.am      1 123    0.0000
      5 C3         -1.2291   -0.7534    1.2514 C.3       1 123    0.0000
      6 H1         -1.8420   -1.5836    1.6025 H         1 123    0.0000
      7 C4         -0.5828   -0.0543    2.4490 C.3       1 123    0.0000
      8 C5         -2.0940    0.2282    0.5034 C.ar      1 123    0.0000
      9 C6         -3.4523    0.2835    0.7539 C.ar      1 123    0.0000
     10 C7         -4.2456    1.1839    0.0677 C.ar      1 123    0.0000
     11 C8         -3.6805    2.0293   -0.8687 C.ar      1 123    0.0000
     12 C9         -2.3220    1.9747   -1.1185 C.ar      1 123    0.0000
     13 C10        -1.5280    1.0773   -0.4292 C.ar      1 123    0.0000
     14 C11         1.2255   -0.9871    0.6524 C.3       1 123    0.0000
     15 C12         1.6810    0.2409   -0.1385 C.3       1 123    0.0000
     16 C13         3.1631    0.4385    0.0501 C.2       1 123    0.0000
     17 O2          3.7929   -0.3274    0.7484 O.2       1 123    0.0000
     18 N2          3.7885    1.4663   -0.5571 N.am      1 123    0.0000
     19 C14         5.2293    1.6585   -0.3737 C.3       1 123    0.0000
     20 H2          0.8141   -1.9172   -2.3958 H         1 123    0.0000
     21 H3          1.4432   -2.7859   -0.9753 H         1 123    0.0000
     22 H4          0.1978   -3.5394   -1.9998 H         1 123    0.0000
     23 H5          0.0300    0.7759    2.0979 H         1 123    0.0000
     24 H6         -1.3608    0.3236    3.1124 H         1 123    0.0000
     25 H7          0.0427   -0.7643    2.9901 H         1 123    0.0000
     26 H8         -3.8938   -0.3771    1.4854 H         1 123    0.0000
     27 H9         -5.3070    1.2265    0.2629 H         1 123    0.0000
     28 H10        -4.3004    2.7323   -1.4053 H         1 123    0.0000
     29 H11        -1.8806    2.6350   -1.8503 H         1 123    0.0000
     30 H12        -0.4667    1.0346   -0.6244 H         1 123    0.0000
     31 H13         1.3448   -0.7970    1.7191 H         1 123    0.0000
     32 H14         1.8301   -1.8479    0.3669 H         1 123    0.0000
     33 H15         1.4662    0.0917   -1.1967 H         1 123    0.0000
     34 H16         1.1485    1.1219    0.2197 H         1 123    0.0000
     35 H17         3.2848    2.0789   -1.1156 H         1 123    0.0000
     36 H18         5.5538    2.5333   -0.9372 H         1 123    0.0000
     37 H19         5.4441    1.8076    0.6844 H         1 123    0.0000
     38 H20         5.7618    0.7775   -0.7320 H         1 123    0.0000
@<TRIPOS>BOND
     1    1    2 1
     2    2    3 2
     3    2    4 am
     4    4    5 1
     5    5    6 1
     6    5    7 1
     7    5    8 1
     8    8    9 ar
     9    9   10 ar
    10   10   11 ar
    11   11   12 ar
    12   12   13 ar
    13    8   13 ar
    14    4   14 1
    15   14   15 1
    16   15   16 1
    17   16   17 2
    18   16   18 am
    19   18   19 1
    20    1   20 1
    21    1   21 1
    22    1   22 1
    23    7   23 1
    24    7   24 1
    25    7   25 1
    26    9   26 1
    27   10   27 1
    28   11   28 1
    29   12   29 1
    30   13   30 1
    31   14   31 1
    32   14   32 1
    33   15   33 1
    34   15   34 1
    35   18   35 1
    36   19   36 1
    37   19   37 1
    38   19   38 1
@<TRIPOS>SUBSTRUCTURE
     1 123     1 RESIDUE           4 A     123     0 ROOT
