@<TRIPOS>MOLECULE
smiles:CC(=O)N(CC=C)CC(=O)N(C)
26 25 1 0 0
SMALL
NO_CHARGES


@<TRIPOS>ATOM
      1 C1         -2.0993    2.0204    0.6918 C.3       1 224    0.0000
      2 C2         -1.0012    1.4560   -0.1724 C.2       1 224    0.0000
      3 O1         -0.3928    2.1812   -0.9305 O.2       1 224    0.0000
      4 N1         -0.6953    0.1452   -0.1027 N.am      1 224    0.0000
      5 C3         -1.5059   -0.7533    0.7231 C.3       1 224    0.0000
      6 C4         -2.7079   -1.2102   -0.0627 C.2       1 224    0.0000
      7 C5         -2.9450   -2.4899   -0.2121 C.2       1 224    0.0000
      8 C6          0.4477   -0.3810   -0.8529 C.3       1 224    0.0000
      9 C7          1.6984   -0.2459   -0.0230 C.2       1 224    0.0000
     10 O2          1.6406    0.2419    1.0859 O.2       1 224    0.0000
     11 N2          2.8811   -0.6672   -0.5130 N.am      1 224    0.0000
     12 C8          4.0969   -0.5358    0.2937 C.3       1 224    0.0000
     13 H1         -3.0591    1.8877    0.1924 H         1 224    0.0000
     14 H2         -2.1126    1.4991    1.6490 H         1 224    0.0000
     15 H3         -1.9205    3.0825    0.8589 H         1 224    0.0000
     16 H4         -0.9095   -1.6190    1.0110 H         1 224    0.0000
     17 H5         -1.8359   -0.2256    1.6179 H         1 224    0.0000
     18 H6         -3.3738   -0.4827   -0.5027 H         1 224    0.0000
     19 H7         -3.8064   -2.8174   -0.7752 H         1 224    0.0000
     20 H8         -2.2790   -3.2174    0.2280 H         1 224    0.0000
     21 H9          0.2773   -1.4324   -1.0846 H         1 224    0.0000
     22 H10         0.5641    0.1810   -1.7795 H         1 224    0.0000
     23 H11         2.9273   -1.0574   -1.3999 H         1 224    0.0000
     24 H12         4.9473   -0.9274   -0.2644 H         1 224    0.0000
     25 H13         4.2673    0.5155    0.5255 H         1 224    0.0000
     26 H14         3.9805   -1.0979    1.2204 H         1 224    0.0000
@<TRIPOS>BOND
     1    1    2 1
     2    2    3 2
     3    2    4 am
     4    4    5 1
     5    5    6 1
     6    6    7 2
     7    4    8 1
     8    8    9 1
     9    9   10 2
    10    9   11 am
    11   11   12 1
    12    1   13 1
    13    1   14 1
    14    1   15 1
    15    5   16 1
    16    5   17 1
    17    6   18 1
    18    7   19 1
    19    7   20 1
    20    8   21 1
    21    8   22 1
    22   11   23 1
    23   12   24 1
    24   12   25 1
    25   12   26 1
@<TRIPOS>SUBSTRUCTURE
     1 224     1 RESIDUE           4 A     224     0 ROOT
