@<TRIPOS>MOLECULE
smiles:CC(=O)N(c1ccccc1)CC(=O)N(C)
29 29 1 0 0
SMALL
NO_CHARGES


@<TRIPOS>ATOM
      1 C1          1.2119    2.7971   -0.4120 C.3       1 23A    0.0000
      2 C2          0.0146    1.9555   -0.0528 C.2       1 23A    0.0000
      3 O1         -0.8966    2.4384    0.5857 O.2       1 23A    0.0000
      4 N1         -0.0437    0.6662   -0.4409 N.am      1 23A    0.0000
      5 C3         -1.2115   -0.0755   -0.2310 C.ar      1 23A    0.0000
      6 C4         -2.3634    0.5537    0.2226 C.ar      1 23A    0.0000
      7 C5         -3.5144   -0.1812    0.4289 C.ar      1 23A    0.0000
      8 C6         -3.5207   -1.5422    0.1842 C.ar      1 23A    0.0000
      9 C7         -2.3752   -2.1718   -0.2671 C.ar      1 23A    0.0000
     10 C8         -1.2227   -1.4415   -0.4812 C.ar      1 23A    0.0000
     11 C9          1.1156    0.0412   -1.0825 C.3       1 23A    0.0000
     12 C10         2.0616   -0.4671   -0.0253 C.2       1 23A    0.0000
     13 O2          1.7938   -0.3216    1.1486 O.2       1 23A    0.0000
     14 N2          3.2052   -1.0833   -0.3842 N.am      1 23A    0.0000
     15 C11         4.1248   -1.5774    0.6436 C.3       1 23A    0.0000
     16 H1          1.9283    2.7793    0.4093 H         1 23A    0.0000
     17 H2          1.6803    2.3974   -1.3114 H         1 23A    0.0000
     18 H3          0.8932    3.8235   -0.5939 H         1 23A    0.0000
     19 H4         -2.3590    1.6166    0.4142 H         1 23A    0.0000
     20 H5         -4.4104    0.3075    0.7819 H         1 23A    0.0000
     21 H6         -4.4220   -2.1146    0.3462 H         1 23A    0.0000
     22 H7         -2.3832   -3.2350   -0.4570 H         1 23A    0.0000
     23 H8         -0.3284   -1.9338   -0.8337 H         1 23A    0.0000
     24 H9          0.7828   -0.7911   -1.7028 H         1 23A    0.0000
     25 H10         1.6267    0.7761   -1.7044 H         1 23A    0.0000
     26 H11         3.4194   -1.1997   -1.3231 H         1 23A    0.0000
     27 H12         4.9873   -2.0424    0.1662 H         1 23A    0.0000
     28 H13         4.4576   -0.7452    1.2638 H         1 23A    0.0000
     29 H14         3.6137   -2.3123    1.2655 H         1 23A    0.0000
@<TRIPOS>BOND
     1    1    2 1
     2    2    3 2
     3    2    4 am
     4    4    5 1
     5    5    6 ar
     6    6    7 ar
     7    7    8 ar
     8    8    9 ar
     9    9   10 ar
    10    5   10 ar
    11    4   11 1
    12   11   12 1
    13   12   13 2
    14   12   14 am
    15   14   15 1
    16    1   16 1
    17    1   17 1
    18    1   18 1
    19    6   19 1
    20    7   20 1
    21    8   21 1
    22    9   22 1
    23   10   23 1
    24   11   24 1
    25   11   25 1
    26   14   26 1
    27   15   27 1
    28   15   28 1
    29   15   29 1
@<TRIPOS>SUBSTRUCTURE
     1 23A     1 RESIDUE           4 A     23A     0 ROOT
