@<TRIPOS>MOLECULE
smiles:CC(=O)N(c1c(C(C)(C)C)cccc1)CC(=O)N(C)
41 41 1 0 0
SMALL
NO_CHARGES


@<TRIPOS>ATOM
      1 C1         -1.4052    2.3053   -1.5317 C.3       1 28C    0.0000
      2 C2         -0.4340    1.1539   -1.4852 C.2       1 28C    0.0000
      3 O1          0.2815    0.9252   -2.4375 O.2       1 28C    0.0000
      4 N1         -0.3606    0.3782   -0.3855 N.am      1 28C    0.0000
      5 C3          0.6096   -0.6265   -0.3015 C.ar      1 28C    0.0000
      6 C4          1.8347   -0.3627    0.2975 C.ar      1 28C    0.0000
      7 C5          2.1207    1.0065    0.8585 C.3       1 28C    0.0000
      8 C6          3.5645    1.0600    1.3618 C.3       1 28C    0.0000
      9 C7          1.9227    2.0575   -0.2356 C.3       1 28C    0.0000
     10 C8          1.1652    1.2919    2.0189 C.3       1 28C    0.0000
     11 C9          2.7901   -1.3564    0.3788 C.ar      1 28C    0.0000
     12 C10         2.5282   -2.6132   -0.1355 C.ar      1 28C    0.0000
     13 C11         1.3099   -2.8790   -0.7328 C.ar      1 28C    0.0000
     14 C12         0.3477   -1.8910   -0.8117 C.ar      1 28C    0.0000
     15 C13        -1.2967    0.5870    0.7220 C.3       1 28C    0.0000
     16 C14        -2.5628   -0.1880    0.4625 C.2       1 28C    0.0000
     17 O2         -2.6402   -0.9173   -0.5035 O.2       1 28C    0.0000
     18 N2         -3.6091   -0.0707    1.3038 N.am      1 28C    0.0000
     19 C15        -4.8400   -0.8241    1.0515 C.3       1 28C    0.0000
     20 H1         -2.3574    1.9615   -1.9356 H         1 28C    0.0000
     21 H2         -1.5567    2.6937   -0.5246 H         1 28C    0.0000
     22 H3         -1.0038    3.0937   -2.1685 H         1 28C    0.0000
     23 H4          4.2452    0.8566    0.5351 H         1 28C    0.0000
     24 H5          3.7714    2.0502    1.7676 H         1 28C    0.0000
     25 H6          3.7056    0.3112    2.1412 H         1 28C    0.0000
     26 H7          0.8621    2.2925   -0.3260 H         1 28C    0.0000
     27 H8          2.4741    2.9610    0.0245 H         1 28C    0.0000
     28 H9          2.2907    1.6678   -1.1847 H         1 28C    0.0000
     29 H10         1.0721    0.4013    2.6404 H         1 28C    0.0000
     30 H11         1.5567    2.1139    2.6181 H         1 28C    0.0000
     31 H12         0.1860    1.5639    1.6248 H         1 28C    0.0000
     32 H13         3.7430   -1.1517    0.8441 H         1 28C    0.0000
     33 H14         3.2771   -3.3887   -0.0707 H         1 28C    0.0000
     34 H15         1.1086   -3.8614   -1.1337 H         1 28C    0.0000
     35 H16        -0.6039   -2.0993   -1.2781 H         1 28C    0.0000
     36 H17        -0.8432    0.2416    1.6510 H         1 28C    0.0000
     37 H18        -1.5308    1.6484    0.8046 H         1 28C    0.0000
     38 H19        -3.5473    0.5126    2.0764 H         1 28C    0.0000
     39 H20        -5.5680   -0.6025    1.8319 H         1 28C    0.0000
     40 H21        -5.2484   -0.5388    0.0820 H         1 28C    0.0000
     41 H22        -4.6193   -1.8915    1.0529 H         1 28C    0.0000
@<TRIPOS>BOND
     1    1    2 1
     2    2    3 2
     3    2    4 am
     4    4    5 1
     5    5    6 ar
     6    6    7 1
     7    7    8 1
     8    7    9 1
     9    7   10 1
    10    6   11 ar
    11   11   12 ar
    12   12   13 ar
    13   13   14 ar
    14    5   14 ar
    15    4   15 1
    16   15   16 1
    17   16   17 2
    18   16   18 am
    19   18   19 1
    20    1   20 1
    21    1   21 1
    22    1   22 1
    23    8   23 1
    24    8   24 1
    25    8   25 1
    26    9   26 1
    27    9   27 1
    28    9   28 1
    29   10   29 1
    30   10   30 1
    31   10   31 1
    32   11   32 1
    33   12   33 1
    34   13   34 1
    35   14   35 1
    36   15   36 1
    37   15   37 1
    38   18   38 1
    39   19   39 1
    40   19   40 1
    41   19   41 1
@<TRIPOS>SUBSTRUCTURE
     1 28C     1 RESIDUE           4 A     28C     0 ROOT
