@<TRIPOS>MOLECULE
smiles:CC(=O)N(CCOc1ccccc1)CC(=O)N(C)
36 36 1 0 0
SMALL
NO_CHARGES


@<TRIPOS>ATOM
      1 C1          2.2792    1.8259   -1.8649 C.3       1 2C3    0.0000
      2 C2          1.5759    1.8956   -0.5339 C.2       1 2C3    0.0000
      3 O1          1.3064    2.9728   -0.0462 O.2       1 2C3    0.0000
      4 N1          1.2465    0.7609    0.1145 N.am      1 2C3    0.0000
      5 C3          0.4592    0.8244    1.3483 C.3       1 2C3    0.0000
      6 C4         -1.0307    0.7588    1.0065 C.3       1 2C3    0.0000
      7 O2         -1.3318   -0.5141    0.4311 O.3       1 2C3    0.0000
      8 C5         -2.6614   -0.5134    0.1499 C.ar      1 2C3    0.0000
      9 C6         -3.2508   -1.6306   -0.4239 C.ar      1 2C3    0.0000
     10 C7         -4.6025   -1.6274   -0.7088 C.ar      1 2C3    0.0000
     11 C8         -5.3679   -0.5121   -0.4226 C.ar      1 2C3    0.0000
     12 C9         -4.7828    0.6027    0.1489 C.ar      1 2C3    0.0000
     13 C10        -3.4327    0.6022    0.4414 C.ar      1 2C3    0.0000
     14 C11         1.6757   -0.5361   -0.4146 C.3       1 2C3    0.0000
     15 C12         3.0735   -0.8355    0.0624 C.2       1 2C3    0.0000
     16 O3          3.6540   -0.0435    0.7743 O.2       1 2C3    0.0000
     17 N2          3.6785   -1.9834   -0.3019 N.am      1 2C3    0.0000
     18 C13         5.0374   -2.2744    0.1618 C.3       1 2C3    0.0000
     19 H1          3.3541    1.7432   -1.7040 H         1 2C3    0.0000
     20 H2          1.9264    0.9548   -2.4171 H         1 2C3    0.0000
     21 H3          2.0658    2.7292   -2.4364 H         1 2C3    0.0000
     22 H4          0.7220   -0.0160    1.9907 H         1 2C3    0.0000
     23 H5          0.6721    1.7589    1.8674 H         1 2C3    0.0000
     24 H6         -1.6181    0.8952    1.9145 H         1 2C3    0.0000
     25 H7         -1.2751    1.5466    0.2940 H         1 2C3    0.0000
     26 H8         -2.6532   -2.5019   -0.6481 H         1 2C3    0.0000
     27 H9         -5.0617   -2.4967   -1.1559 H         1 2C3    0.0000
     28 H10        -6.4246   -0.5116   -0.6461 H         1 2C3    0.0000
     29 H11        -5.3827    1.4729    0.3710 H         1 2C3    0.0000
     30 H12        -2.9761    1.4732    0.8879 H         1 2C3    0.0000
     31 H13         0.9976   -1.3140   -0.0638 H         1 2C3    0.0000
     32 H14         1.6622   -0.5065   -1.5041 H         1 2C3    0.0000
     33 H15         3.2142   -2.6168   -0.8713 H         1 2C3    0.0000
     34 H16         5.3567   -3.2394   -0.2318 H         1 2C3    0.0000
     35 H17         5.7155   -1.4965   -0.1890 H         1 2C3    0.0000
     36 H18         5.0509   -2.3040    1.2513 H         1 2C3    0.0000
@<TRIPOS>BOND
     1    1    2 1
     2    2    3 2
     3    2    4 am
     4    4    5 1
     5    5    6 1
     6    6    7 1
     7    7    8 1
     8    8    9 ar
     9    9   10 ar
    10   10   11 ar
    11   11   12 ar
    12   12   13 ar
    13    8   13 ar
    14    4   14 1
    15   14   15 1
    16   15   16 2
    17   15   17 am
    18   17   18 1
    19    1   19 1
    20    1   20 1
    21    1   21 1
    22    5   22 1
    23    5   23 1
    24    6   24 1
    25    6   25 1
    26    9   26 1
    27   10   27 1
    28   11   28 1
    29   12   29 1
    30   13   30 1
    31   14   31 1
    32   14   32 1
    33   17   33 1
    34   18   34 1
    35   18   35 1
    36   18   36 1
@<TRIPOS>SUBSTRUCTURE
     1 2C3     1 RESIDUE           4 A     2C3     0 ROOT
