@<TRIPOS>MOLECULE
smiles:CC(=O)N([C@H](C)c1ccccc1)CC(=O)N(C)
35 35 1 0 0
SMALL
NO_CHARGES


@<TRIPOS>ATOM
      1 C1         -0.7399    2.3036    0.8685 C.3       1 2CF    0.0000
      2 C2          0.2469    1.6605   -0.0715 C.2       1 2CF    0.0000
      3 O1          0.8746    2.3440   -0.8524 O.2       1 2CF    0.0000
      4 N1          0.4319    0.3257   -0.0445 N.am      1 2CF    0.0000
      5 C3         -0.4150   -0.5141    0.8062 C.3       1 2CF    0.0000
      6 H1         -0.3820   -0.1434    1.8307 H         1 2CF    0.0000
      7 C4          0.0952   -1.9560    0.7689 C.3       1 2CF    0.0000
      8 C5         -1.8343   -0.4702    0.3016 C.ar      1 2CF    0.0000
      9 C6         -2.8795   -0.3070    1.1915 C.ar      1 2CF    0.0000
     10 C7         -4.1814   -0.2668    0.7286 C.ar      1 2CF    0.0000
     11 C8         -4.4382   -0.3893   -0.6242 C.ar      1 2CF    0.0000
     12 C9         -3.3929   -0.5517   -1.5141 C.ar      1 2CF    0.0000
     13 C10        -2.0907   -0.5875   -1.0517 C.ar      1 2CF    0.0000
     14 C11         1.4799   -0.2853   -0.8658 C.3       1 2CF    0.0000
     15 C12         2.7856   -0.2612   -0.1137 C.2       1 2CF    0.0000
     16 O2          2.8358    0.2191    0.9988 O.2       1 2CF    0.0000
     17 N2          3.8975   -0.7733   -0.6774 N.am      1 2CF    0.0000
     18 C13         5.1668   -0.7499    0.0537 C.3       1 2CF    0.0000
     19 H2         -1.7022    2.4104    0.3677 H         1 2CF    0.0000
     20 H3         -0.8585    1.6789    1.7539 H         1 2CF    0.0000
     21 H4         -0.3729    3.2865    1.1638 H         1 2CF    0.0000
     22 H5          0.0622   -2.3267   -0.2556 H         1 2CF    0.0000
     23 H6          1.1218   -1.9878    1.1339 H         1 2CF    0.0000
     24 H7         -0.5349   -2.5809    1.4018 H         1 2CF    0.0000
     25 H8         -2.6789   -0.2112    2.2483 H         1 2CF    0.0000
     26 H9         -4.9981   -0.1400    1.4239 H         1 2CF    0.0000
     27 H10        -5.4554   -0.3587   -0.9857 H         1 2CF    0.0000
     28 H11        -3.5935   -0.6478   -2.5710 H         1 2CF    0.0000
     29 H12        -1.2741   -0.7144   -1.7470 H         1 2CF    0.0000
     30 H13         1.2096   -1.3168   -1.0914 H         1 2CF    0.0000
     31 H14         1.5856    0.2742   -1.7953 H         1 2CF    0.0000
     32 H15         3.8574   -1.1575   -1.5672 H         1 2CF    0.0000
     33 H16         5.9466   -1.2045   -0.5574 H         1 2CF    0.0000
     34 H17         5.4372    0.2817    0.2793 H         1 2CF    0.0000
     35 H18         5.0611   -1.3094    0.9832 H         1 2CF    0.0000
@<TRIPOS>BOND
     1    1    2 1
     2    2    3 2
     3    2    4 am
     4    4    5 1
     5    5    6 1
     6    5    7 1
     7    5    8 1
     8    8    9 ar
     9    9   10 ar
    10   10   11 ar
    11   11   12 ar
    12   12   13 ar
    13    8   13 ar
    14    4   14 1
    15   14   15 1
    16   15   16 2
    17   15   17 am
    18   17   18 1
    19    1   19 1
    20    1   20 1
    21    1   21 1
    22    7   22 1
    23    7   23 1
    24    7   24 1
    25    9   25 1
    26   10   26 1
    27   11   27 1
    28   12   28 1
    29   13   29 1
    30   14   30 1
    31   14   31 1
    32   17   32 1
    33   18   33 1
    34   18   34 1
    35   18   35 1
@<TRIPOS>SUBSTRUCTURE
     1 2CF     1 RESIDUE           4 A     2CF     0 ROOT
