@<TRIPOS>MOLECULE
smiles:CC(=O)N(c1ccc(C)cc1)CC(=O)N(C)
32 32 1 0 0
SMALL
NO_CHARGES


@<TRIPOS>ATOM
      1 C1          2.0094    2.6560   -0.3452 C.3       1 2E2    0.0000
      2 C2          0.6793    2.0235   -0.0264 C.2       1 2E2    0.0000
      3 O1         -0.1501    2.6419    0.6065 O.2       1 2E2    0.0000
      4 N1          0.4114    0.7705   -0.4445 N.am      1 2E2    0.0000
      5 C3         -0.8695    0.2343   -0.2722 C.ar      1 2E2    0.0000
      6 C4         -1.9074    1.0415    0.1750 C.ar      1 2E2    0.0000
      7 C5         -3.1705    0.5092    0.3440 C.ar      1 2E2    0.0000
      8 C6         -3.4024   -0.8259    0.0686 C.ar      1 2E2    0.0000
      9 C7         -4.7819   -1.4034    0.2542 C.3       1 2E2    0.0000
     10 C8         -2.3712   -1.6322   -0.3773 C.ar      1 2E2    0.0000
     11 C9         -1.1070   -1.1047   -0.5535 C.ar      1 2E2    0.0000
     12 C10         1.4612   -0.0300   -1.0795 C.3       1 2E2    0.0000
     13 C11         2.2845   -0.7120   -0.0174 C.2       1 2E2    0.0000
     14 O2          2.0203   -0.5458    1.1546 O.2       1 2E2    0.0000
     15 N2          3.3144   -1.5068   -0.3698 N.am      1 2E2    0.0000
     16 C12         4.1147   -2.1698    0.6627 C.3       1 2E2    0.0000
     17 H1          2.6947    2.5007    0.4881 H         1 2E2    0.0000
     18 H2          2.4223    2.1998   -1.2450 H         1 2E2    0.0000
     19 H3          1.8734    3.7249   -0.5094 H         1 2E2    0.0000
     20 H4         -1.7268    2.0842    0.3906 H         1 2E2    0.0000
     21 H5         -3.9780    1.1363    0.6921 H         1 2E2    0.0000
     22 H6         -5.3461   -1.3019   -0.6729 H         1 2E2    0.0000
     23 H7         -4.7019   -2.4582    0.5172 H         1 2E2    0.0000
     24 H8         -5.2956   -0.8679    1.0526 H         1 2E2    0.0000
     25 H9         -2.5555   -2.6745   -0.5920 H         1 2E2    0.0000
     26 H10        -0.3020   -1.7349   -0.9017 H         1 2E2    0.0000
     27 H11         1.0054   -0.7814   -1.7242 H         1 2E2    0.0000
     28 H12         2.1028    0.6191   -1.6754 H         1 2E2    0.0000
     29 H13         3.5257   -1.6397   -1.3071 H         1 2E2    0.0000
     30 H14         4.8958   -2.7654    0.1903 H         1 2E2    0.0000
     31 H15         4.5706   -1.4184    1.3074 H         1 2E2    0.0000
     32 H16         3.4731   -2.8189    1.2587 H         1 2E2    0.0000
@<TRIPOS>BOND
     1    1    2 1
     2    2    3 2
     3    2    4 am
     4    4    5 1
     5    5    6 ar
     6    6    7 ar
     7    7    8 ar
     8    8    9 1
     9    8   10 ar
    10   10   11 ar
    11    5   11 ar
    12    4   12 1
    13   12   13 1
    14   13   14 2
    15   13   15 am
    16   15   16 1
    17    1   17 1
    18    1   18 1
    19    1   19 1
    20    6   20 1
    21    7   21 1
    22    9   22 1
    23    9   23 1
    24    9   24 1
    25   10   25 1
    26   11   26 1
    27   12   27 1
    28   12   28 1
    29   15   29 1
    30   16   30 1
    31   16   31 1
    32   16   32 1
@<TRIPOS>SUBSTRUCTURE
     1 2E2     1 RESIDUE           4 A     2E2     0 ROOT
