@<TRIPOS>MOLECULE
smiles:CC(=O)N(CCCCC)CC(=O)N(C)
34 33 1 0 0
SMALL
NO_CHARGES


@<TRIPOS>ATOM
      1 C1          1.6481    2.4944   -0.7989 C.3       1 318    0.0000
      2 C2          0.5363    1.8656    0.0008 C.2       1 318    0.0000
      3 O1         -0.1461    2.5503    0.7333 O.2       1 318    0.0000
      4 N1          0.3001    0.5424   -0.0980 N.am      1 318    0.0000
      5 C3         -0.8526   -0.0491    0.5857 C.3       1 318    0.0000
      6 C4         -2.0665   -0.0227   -0.3452 C.3       1 318    0.0000
      7 C5         -3.2704   -0.6404    0.3689 C.3       1 318    0.0000
      8 C6         -4.4843   -0.6139   -0.5621 C.3       1 318    0.0000
      9 C7         -5.6883   -1.2316    0.1520 C.3       1 318    0.0000
     10 C8          1.1962   -0.3045   -0.8893 C.3       1 318    0.0000
     11 C9          2.3688   -0.7250   -0.0412 C.2       1 318    0.0000
     12 O2          2.4482   -0.3539    1.1107 O.2       1 318    0.0000
     13 N2          3.3293   -1.5136   -0.5628 N.am      1 318    0.0000
     14 C10         4.4693   -1.9224    0.2616 C.3       1 318    0.0000
     15 H1          2.5858    2.4043   -0.2506 H         1 318    0.0000
     16 H2          1.7380    1.9856   -1.7586 H         1 318    0.0000
     17 H3          1.4246    3.5481   -0.9658 H         1 318    0.0000
     18 H4         -0.6248   -1.0800    0.8565 H         1 318    0.0000
     19 H5         -1.0734    0.5230    1.4869 H         1 318    0.0000
     20 H6         -2.2944    1.0083   -0.6160 H         1 318    0.0000
     21 H7         -1.8458   -0.5947   -1.2464 H         1 318    0.0000
     22 H8         -3.0426   -1.6713    0.6397 H         1 318    0.0000
     23 H9         -3.4912   -0.0683    1.2701 H         1 318    0.0000
     24 H10        -4.7122    0.4170   -0.8329 H         1 318    0.0000
     25 H11        -4.2636   -1.1860   -1.4632 H         1 318    0.0000
     26 H12        -6.5531   -1.2128   -0.5112 H         1 318    0.0000
     27 H13        -5.4604   -2.2626    0.4228 H         1 318    0.0000
     28 H14        -5.9090   -0.6595    1.0532 H         1 318    0.0000
     29 H15         0.6562   -1.1891   -1.2268 H         1 318    0.0000
     30 H16         1.5549    0.2541   -1.7538 H         1 318    0.0000
     31 H17         3.2659   -1.8105   -1.4841 H         1 318    0.0000
     32 H18         5.1360   -2.5525   -0.3271 H         1 318    0.0000
     33 H19         5.0093   -1.0378    0.5992 H         1 318    0.0000
     34 H20         4.1106   -2.4810    1.1261 H         1 318    0.0000
@<TRIPOS>BOND
     1    1    2 1
     2    2    3 2
     3    2    4 am
     4    4    5 1
     5    5    6 1
     6    6    7 1
     7    7    8 1
     8    8    9 1
     9    4   10 1
    10   10   11 1
    11   11   12 2
    12   11   13 am
    13   13   14 1
    14    1   15 1
    15    1   16 1
    16    1   17 1
    17    5   18 1
    18    5   19 1
    19    6   20 1
    20    6   21 1
    21    7   22 1
    22    7   23 1
    23    8   24 1
    24    8   25 1
    25    9   26 1
    26    9   27 1
    27    9   28 1
    28   10   29 1
    29   10   30 1
    30   13   31 1
    31   14   32 1
    32   14   33 1
    33   14   34 1
@<TRIPOS>SUBSTRUCTURE
     1 318     1 RESIDUE           4 A     318     0 ROOT
