@<TRIPOS>MOLECULE
smiles:CC(=O)Nc1ccccc1N(C(=O)C)CC(=O)N(C)
36 36 1 0 0
SMALL
NO_CHARGES


@<TRIPOS>ATOM
      1 C1          3.7975    2.2658   -1.3249 C.3       1 419    0.0000
      2 C2          3.2846    0.9687   -0.7543 C.2       1 419    0.0000
      3 O1          4.0647    0.1409   -0.3331 O.2       1 419    0.0000
      4 N1          1.9591    0.7286   -0.7119 N.am      1 419    0.0000
      5 C3          1.4870   -0.5228   -0.2956 C.ar      1 419    0.0000
      6 C4          2.2929   -1.6453   -0.4155 C.ar      1 419    0.0000
      7 C5          1.8253   -2.8789   -0.0036 C.ar      1 419    0.0000
      8 C6          0.5542   -2.9988    0.5281 C.ar      1 419    0.0000
      9 C7         -0.2556   -1.8857    0.6513 C.ar      1 419    0.0000
     10 C8          0.2077   -0.6427    0.2459 C.ar      1 419    0.0000
     11 N2         -0.6114    0.4868    0.3697 N.am      1 419    0.0000
     12 C9         -0.5805    1.2209    1.4996 C.2       1 419    0.0000
     13 O2         -1.2897    2.1990    1.6069 O.2       1 419    0.0000
     14 C10         0.3352    0.8265    2.6296 C.3       1 419    0.0000
     15 C11        -1.5015    0.8701   -0.7288 C.3       1 419    0.0000
     16 C12        -2.8368    0.1941   -0.5527 C.2       1 419    0.0000
     17 O3         -3.0262   -0.5361    0.3970 O.2       1 419    0.0000
     18 N3         -3.8205    0.4008   -1.4505 N.am      1 419    0.0000
     19 C13        -5.1185   -0.2564   -1.2792 C.3       1 419    0.0000
     20 H1          4.8863    2.2793   -1.2751 H         1 419    0.0000
     21 H2          3.4801    2.3563   -2.3638 H         1 419    0.0000
     22 H3          3.3970    3.0998   -0.7487 H         1 419    0.0000
     23 H4          1.3320    1.4223   -0.9697 H         1 419    0.0000
     24 H5          3.2858   -1.5554   -0.8309 H         1 419    0.0000
     25 H6          2.4541   -3.7519   -0.0977 H         1 419    0.0000
     26 H7          0.1933   -3.9652    0.8478 H         1 419    0.0000
     27 H8         -1.2477   -1.9831    1.0670 H         1 419    0.0000
     28 H9          0.8893   -0.0702    2.3522 H         1 419    0.0000
     29 H10         1.0345    1.6381    2.8307 H         1 419    0.0000
     30 H11        -0.2559    0.6264    3.5233 H         1 419    0.0000
     31 H12        -1.6385    1.9515   -0.7250 H         1 419    0.0000
     32 H13        -1.0611    0.5630   -1.6774 H         1 419    0.0000
     33 H14        -3.6690    0.9848   -2.2100 H         1 419    0.0000
     34 H15        -5.7809    0.0288   -2.0966 H         1 419    0.0000
     35 H16        -4.9816   -1.3378   -1.2830 H         1 419    0.0000
     36 H17        -5.5590    0.0507   -0.3306 H         1 419    0.0000
@<TRIPOS>BOND
     1    1    2 1
     2    2    3 2
     3    2    4 am
     4    4    5 1
     5    5    6 ar
     6    6    7 ar
     7    7    8 ar
     8    8    9 ar
     9    9   10 ar
    10    5   10 ar
    11   10   11 1
    12   11   12 am
    13   12   13 2
    14   12   14 1
    15   11   15 1
    16   15   16 1
    17   16   17 2
    18   16   18 am
    19   18   19 1
    20    1   20 1
    21    1   21 1
    22    1   22 1
    23    4   23 1
    24    6   24 1
    25    7   25 1
    26    8   26 1
    27    9   27 1
    28   14   28 1
    29   14   29 1
    30   14   30 1
    31   15   31 1
    32   15   32 1
    33   18   33 1
    34   19   34 1
    35   19   35 1
    36   19   36 1
@<TRIPOS>SUBSTRUCTURE
     1 419     1 RESIDUE           4 A     419     0 ROOT
