@<TRIPOS>MOLECULE
smiles:CC(=O)N([C@@H](C)c1ccc(OC)cc1)CC(=O)N(C)
39 39 1 0 0
SMALL
NO_CHARGES


@<TRIPOS>ATOM
      1 C1          2.4060    1.7309   -1.9055 C.3       1 483    0.0000
      2 C2          1.6292    1.7950   -0.6158 C.2       1 483    0.0000
      3 O1          1.4276    2.8651   -0.0817 O.2       1 483    0.0000
      4 N1          1.1584    0.6631   -0.0558 N.am      1 483    0.0000
      5 C3          0.2920    0.7346    1.1234 C.3       1 483    0.0000
      6 H1          0.7032    0.1082    1.9150 H         1 483    0.0000
      7 C4          0.2109    2.1831    1.6096 C.3       1 483    0.0000
      8 C5         -1.0880    0.2477    0.7632 C.ar      1 483    0.0000
      9 C6         -1.8264   -0.4751    1.6818 C.ar      1 483    0.0000
     10 C7         -3.0914   -0.9230    1.3539 C.ar      1 483    0.0000
     11 C8         -3.6209   -0.6465    0.1017 C.ar      1 483    0.0000
     12 O2         -4.8653   -1.0857   -0.2231 O.3       1 483    0.0000
     13 C9         -5.1219   -0.6484   -1.5592 C.3       1 483    0.0000
     14 C10        -2.8781    0.0793   -0.8181 C.ar      1 483    0.0000
     15 C11        -1.6156    0.5294   -0.4834 C.ar      1 483    0.0000
     16 C12         1.5130   -0.6389   -0.6262 C.3       1 483    0.0000
     17 C13         2.8483   -1.0783   -0.0833 C.2       1 483    0.0000
     18 O3          3.4450   -0.3734    0.7028 O.2       1 483    0.0000
     19 N2          3.3795   -2.2547   -0.4712 N.am      1 483    0.0000
     20 C14         4.6776   -2.6819    0.0566 C.3       1 483    0.0000
     21 H2          3.4726    1.6861   -1.6853 H         1 483    0.0000
     22 H3          2.1124    0.8414   -2.4628 H         1 483    0.0000
     23 H4          2.1950    2.6190   -2.5012 H         1 483    0.0000
     24 H5         -0.2429    2.8014    0.8351 H         1 483    0.0000
     25 H6         -0.3962    2.2294    2.5137 H         1 483    0.0000
     26 H7          1.2141    2.5503    1.8263 H         1 483    0.0000
     27 H8         -1.4138   -0.6901    2.6565 H         1 483    0.0000
     28 H9         -3.6676   -1.4882    2.0715 H         1 483    0.0000
     29 H10        -6.1144   -0.9790   -1.8654 H         1 483    0.0000
     30 H11        -5.0724    0.4397   -1.6012 H         1 483    0.0000
     31 H12        -4.3747   -1.0723   -2.2300 H         1 483    0.0000
     32 H13        -3.2880    0.2955   -1.7936 H         1 483    0.0000
     33 H14        -1.0371    1.0948   -1.1989 H         1 483    0.0000
     34 H15         0.7526   -1.3723   -0.3581 H         1 483    0.0000
     35 H16         1.5714   -0.5562   -1.7115 H         1 483    0.0000
     36 H17         2.9022   -2.8185   -1.0999 H         1 483    0.0000
     37 H18         4.9414   -3.6505   -0.3679 H         1 483    0.0000
     38 H19         5.4380   -1.9484   -0.2115 H         1 483    0.0000
     39 H20         4.6192   -2.7645    1.1419 H         1 483    0.0000
@<TRIPOS>BOND
     1    1    2 1
     2    2    3 2
     3    2    4 am
     4    4    5 1
     5    5    6 1
     6    5    7 1
     7    5    8 1
     8    8    9 ar
     9    9   10 ar
    10   10   11 ar
    11   11   12 1
    12   12   13 1
    13   11   14 ar
    14   14   15 ar
    15    8   15 ar
    16    4   16 1
    17   16   17 1
    18   17   18 2
    19   17   19 am
    20   19   20 1
    21    1   21 1
    22    1   22 1
    23    1   23 1
    24    7   24 1
    25    7   25 1
    26    7   26 1
    27    9   27 1
    28   10   28 1
    29   13   29 1
    30   13   30 1
    31   13   31 1
    32   14   32 1
    33   15   33 1
    34   16   34 1
    35   16   35 1
    36   19   36 1
    37   20   37 1
    38   20   38 1
    39   20   39 1
@<TRIPOS>SUBSTRUCTURE
     1 483     1 RESIDUE           4 A     483     0 ROOT
