@<TRIPOS>MOLECULE
smiles:CC(=O)N1CCC[C@@H]1C(=O)N(C)
26 26 1 0 0
SMALL
NO_CHARGES


@<TRIPOS>ATOM
      1 C1          2.5953    1.9274   -0.1853 C.3       1 529    0.0000
      2 C2          1.2675    1.3059    0.1635 C.2       1 529    0.0000
      3 O1          0.3211    2.0124    0.4395 O.2       1 529    0.0000
      4 N1          1.1317   -0.0350    0.1688 N.am      1 529    0.0000
      5 C3          2.1915   -1.0048   -0.1440 C.3       1 529    0.0000
      6 C4          1.5703   -2.4133   -0.0350 C.3       1 529    0.0000
      7 C5          0.0543   -2.1399   -0.2201 C.3       1 529    0.0000
      8 C6         -0.1025   -0.7723    0.4953 C.3       1 529    0.0000
      9 H1         -0.1915   -0.9155    1.5722 H         1 529    0.0000
     10 C7         -1.3059   -0.0373   -0.0363 C.2       1 529    0.0000
     11 O2         -1.1645    0.8426   -0.8589 O.2       1 529    0.0000
     12 N2         -2.5393   -0.3577    0.4025 N.am      1 529    0.0000
     13 C8         -3.7092    0.3568   -0.1142 C.3       1 529    0.0000
     14 H2          2.5122    3.0132   -0.1367 H         1 529    0.0000
     15 H3          3.3520    1.5889    0.5224 H         1 529    0.0000
     16 H4          2.8821    1.6297   -1.1939 H         1 529    0.0000
     17 H5          2.5586   -0.8390   -1.1568 H         1 529    0.0000
     18 H6          3.0088   -0.9038    0.5700 H         1 529    0.0000
     19 H7          1.9447   -3.0622   -0.8267 H         1 529    0.0000
     20 H8          1.7671   -2.8467    0.9456 H         1 529    0.0000
     21 H9         -0.2028   -2.0637   -1.2766 H         1 529    0.0000
     22 H10        -0.5439   -2.9069    0.2717 H         1 529    0.0000
     23 H11        -2.6524   -1.0615    1.0604 H         1 529    0.0000
     24 H12        -4.6115   -0.0375    0.3532 H         1 529    0.0000
     25 H13        -3.6163    1.4186    0.1136 H         1 529    0.0000
     26 H14        -3.7703    0.2209   -1.1940 H         1 529    0.0000
@<TRIPOS>BOND
     1    1    2 1
     2    2    3 2
     3    2    4 am
     4    4    5 1
     5    5    6 1
     6    6    7 1
     7    7    8 1
     8    8    9 1
     9    4    8 1
    10    8   10 1
    11   10   11 2
    12   10   12 am
    13   12   13 1
    14    1   14 1
    15    1   15 1
    16    1   16 1
    17    5   17 1
    18    5   18 1
    19    6   19 1
    20    6   20 1
    21    7   21 1
    22    7   22 1
    23   12   23 1
    24   13   24 1
    25   13   25 1
    26   13   26 1
@<TRIPOS>SUBSTRUCTURE
     1 529     1 RESIDUE           4 A     529     0 ROOT
