@<TRIPOS>MOLECULE
smiles:CC(=O)N(CC[N+](C)(C)C)CC(=O)N(C)
37 36 1 0 0
SMALL
NO_CHARGES


@<TRIPOS>ATOM
      1 C1          1.7075    2.6150   -0.7043 C.3       1 627    0.0000
      2 C2          0.5604    1.9250   -0.0121 C.2       1 627    0.0000
      3 O1         -0.1859    2.5591    0.7034 O.2       1 627    0.0000
      4 N1          0.3638    0.6034   -0.1881 N.am      1 627    0.0000
      5 C3         -0.8173   -0.0446    0.3876 C.3       1 627    0.0000
      6 C4         -1.9666    0.0007   -0.6214 C.3       1 627    0.0000
      7 N2         -3.1509   -0.6490   -0.0441 N.4       1 627    0.0000
      8 C5         -3.5476    0.0563    1.1819 C.3       1 627    0.0000
      9 C6         -4.2543   -0.6055   -1.0129 C.3       1 627    0.0000
     10 C7         -2.8351   -2.0475    0.2759 C.3       1 627    0.0000
     11 C8          1.3312   -0.1854   -0.9551 C.3       1 627    0.0000
     12 C9          2.4544   -0.6211   -0.0498 C.2       1 627    0.0000
     13 O2          2.4475   -0.3040    1.1208 O.2       1 627    0.0000
     14 N3          3.4666   -1.3631   -0.5410 N.am      1 627    0.0000
     15 C10         4.5585   -1.7867    0.3390 C.3       1 627    0.0000
     16 H1          2.6084    2.5186   -0.0984 H         1 627    0.0000
     17 H2          1.8737    2.1548   -1.6784 H         1 627    0.0000
     18 H3          1.4699    3.6705   -0.8369 H         1 627    0.0000
     19 H4         -0.5830   -1.0823    0.6251 H         1 627    0.0000
     20 H5         -1.1117    0.4788    1.2973 H         1 627    0.0000
     21 H6         -2.2009    1.0384   -0.8588 H         1 627    0.0000
     22 H7         -1.6722   -0.5227   -1.5311 H         1 627    0.0000
     23 H8         -3.7819    1.0940    0.9444 H         1 627    0.0000
     24 H9         -4.4264   -0.4257    1.6102 H         1 627    0.0000
     25 H10        -2.7289    0.0241    1.9007 H         1 627    0.0000
     26 H11        -3.9599   -1.1289   -1.9226 H         1 627    0.0000
     27 H12        -5.1331   -1.0876   -0.5845 H         1 627    0.0000
     28 H13        -4.4886    0.4321   -1.2503 H         1 627    0.0000
     29 H14        -2.0163   -2.0797    0.9948 H         1 627    0.0000
     30 H15        -3.7138   -2.5296    0.7043 H         1 627    0.0000
     31 H16        -2.5407   -2.5709   -0.6337 H         1 627    0.0000
     32 H17         0.8367   -1.0640   -1.3692 H         1 627    0.0000
     33 H18         1.7330    0.4216   -1.7664 H         1 627    0.0000
     34 H19         3.4721   -1.6167   -1.4773 H         1 627    0.0000
     35 H20         5.2783   -2.3735   -0.2316 H         1 627    0.0000
     36 H21         5.0530   -0.9080    0.7532 H         1 627    0.0000
     37 H22         4.1567   -2.3937    1.1503 H         1 627    0.0000
@<TRIPOS>BOND
     1    1    2 1
     2    2    3 2
     3    2    4 am
     4    4    5 1
     5    5    6 1
     6    6    7 1
     7    7    8 1
     8    7    9 1
     9    7   10 1
    10    4   11 1
    11   11   12 1
    12   12   13 2
    13   12   14 am
    14   14   15 1
    15    1   16 1
    16    1   17 1
    17    1   18 1
    18    5   19 1
    19    5   20 1
    20    6   21 1
    21    6   22 1
    22    8   23 1
    23    8   24 1
    24    8   25 1
    25    9   26 1
    26    9   27 1
    27    9   28 1
    28   10   29 1
    29   10   30 1
    30   10   31 1
    31   11   32 1
    32   11   33 1
    33   14   34 1
    34   15   35 1
    35   15   36 1
    36   15   37 1
@<TRIPOS>SUBSTRUCTURE
     1 627     1 RESIDUE           4 A     627     0 ROOT
