@<TRIPOS>MOLECULE
smiles:CC(=O)N(c1c(C)cccc1(C))CC(=O)N(C)
35 35 1 0 0
SMALL
NO_CHARGES


@<TRIPOS>ATOM
      1 C1          1.4659    2.5967   -0.7610 C.3       1 724    0.0000
      2 C2          0.1801    1.8117   -0.7209 C.2       1 724    0.0000
      3 O1         -0.7376    2.1133   -1.4542 O.2       1 724    0.0000
      4 N1          0.0501    0.7745    0.1299 N.am      1 724    0.0000
      5 C3         -1.1001   -0.0216    0.0918 C.ar      1 724    0.0000
      6 C4         -1.2109   -1.0397   -0.8461 C.ar      1 724    0.0000
      7 C5         -0.0921   -1.2892   -1.8244 C.3       1 724    0.0000
      8 C6         -2.3475   -1.8236   -0.8810 C.ar      1 724    0.0000
      9 C7         -3.3743   -1.5956    0.0166 C.ar      1 724    0.0000
     10 C8         -3.2672   -0.5823    0.9515 C.ar      1 724    0.0000
     11 C9         -2.1306    0.2012    0.9956 C.ar      1 724    0.0000
     12 C10        -2.0147    1.3053    2.0147 C.3       1 724    0.0000
     13 C11         1.1128    0.4805    1.0944 C.3       1 724    0.0000
     14 C12         2.1850   -0.3408    0.4258 C.2       1 724    0.0000
     15 O2          2.1224   -0.5663   -0.7643 O.2       1 724    0.0000
     16 N2          3.2133   -0.8246    1.1502 N.am      1 724    0.0000
     17 C13         4.2556   -1.6230    0.5002 C.3       1 724    0.0000
     18 H1          1.3795    3.4689   -0.1130 H         1 724    0.0000
     19 H2          2.2865    1.9677   -0.4160 H         1 724    0.0000
     20 H3          1.6618    2.9212   -1.7829 H         1 724    0.0000
     21 H4          0.6012   -2.0184   -1.4052 H         1 724    0.0000
     22 H5         -0.5042   -1.6741   -2.7572 H         1 724    0.0000
     23 H6          0.4359   -0.3555   -2.0183 H         1 724    0.0000
     24 H7         -2.4345   -2.6153   -1.6104 H         1 724    0.0000
     25 H8         -4.2621   -2.2100   -0.0128 H         1 724    0.0000
     26 H9         -4.0711   -0.4065    1.6509 H         1 724    0.0000
     27 H10        -1.4785    0.9374    2.8895 H         1 724    0.0000
     28 H11        -1.4704    2.1442    1.5812 H         1 724    0.0000
     29 H12        -3.0114    1.6327    2.3106 H         1 724    0.0000
     30 H13         1.5432    1.4142    1.4566 H         1 724    0.0000
     31 H14         0.6977   -0.0778    1.9335 H         1 724    0.0000
     32 H15         3.2633   -0.6443    2.1020 H         1 724    0.0000
     33 H16         4.9974   -1.9237    1.2401 H         1 724    0.0000
     34 H17         3.8077   -2.5106    0.0533 H         1 724    0.0000
     35 H18         4.7371   -1.0288   -0.2764 H         1 724    0.0000
@<TRIPOS>BOND
     1    1    2 1
     2    2    3 2
     3    2    4 am
     4    4    5 1
     5    5    6 ar
     6    6    7 1
     7    6    8 ar
     8    8    9 ar
     9    9   10 ar
    10   10   11 ar
    11    5   11 ar
    12   11   12 1
    13    4   13 1
    14   13   14 1
    15   14   15 2
    16   14   16 am
    17   16   17 1
    18    1   18 1
    19    1   19 1
    20    1   20 1
    21    7   21 1
    22    7   22 1
    23    7   23 1
    24    8   24 1
    25    9   25 1
    26   10   26 1
    27   12   27 1
    28   12   28 1
    29   12   29 1
    30   13   30 1
    31   13   31 1
    32   16   32 1
    33   17   33 1
    34   17   34 1
    35   17   35 1
@<TRIPOS>SUBSTRUCTURE
     1 724     1 RESIDUE           4 A     724     0 ROOT
