@<TRIPOS>MOLECULE
smiles:CC(=O)N(CCC[N-][N+]#N)CC(=O)N(C)
30 29 1 0 0
SMALL
NO_CHARGES


@<TRIPOS>ATOM
      1 C1          2.1683    2.4532   -0.8012 C.3       1 786    0.0000
      2 C2          1.0228    1.8897   -0.0004 C.2       1 786    0.0000
      3 O1          0.3810    2.6131    0.7316 O.2       1 786    0.0000
      4 N1          0.7115    0.5820   -0.0976 N.am      1 786    0.0000
      5 C3         -0.4728    0.0581    0.5873 C.3       1 786    0.0000
      6 C4         -1.6836    0.1526   -0.3432 C.3       1 786    0.0000
      7 C5         -2.9205   -0.3946    0.3721 C.3       1 786    0.0000
      8 N2         -4.0799   -0.3040   -0.5189 N.pl3     1 786    0.0000
      9 N3         -5.1998   -0.6997   -0.1294 N.1       1 786    0.0000
     10 N4         -6.1258   -1.0268    0.1926 N.1       1 786    0.0000
     11 C6          1.5575   -0.3155   -0.8881 C.3       1 786    0.0000
     12 C7          2.7046   -0.8013   -0.0401 C.2       1 786    0.0000
     13 O2          2.8056   -0.4339    1.1114 O.2       1 786    0.0000
     14 N5          3.6183   -1.6439   -0.5611 N.am      1 786    0.0000
     15 C8          4.7335   -2.1161    0.2633 C.3       1 786    0.0000
     16 H1          3.0997    2.3104   -0.2532 H         1 786    0.0000
     17 H2          2.2286    1.9390   -1.7604 H         1 786    0.0000
     18 H3          2.0052    3.5177   -0.9693 H         1 786    0.0000
     19 H4         -0.3040   -0.9839    0.8592 H         1 786    0.0000
     20 H5         -0.6601    0.6428    1.4879 H         1 786    0.0000
     21 H6         -1.8524    1.1946   -0.6151 H         1 786    0.0000
     22 H7         -1.4963   -0.4321   -1.2438 H         1 786    0.0000
     23 H8         -2.7517   -1.4365    0.6440 H         1 786    0.0000
     24 H9         -3.1078    0.1902    1.2727 H         1 786    0.0000
     25 H10         0.9677   -1.1683   -1.2244 H         1 786    0.0000
     26 H11         1.9470    0.2208   -1.7535 H         1 786    0.0000
     27 H12         3.5376   -1.9377   -1.4820 H         1 786    0.0000
     28 H13         5.3629   -2.7839   -0.3249 H         1 786    0.0000
     29 H14         5.3233   -1.2634    0.5996 H         1 786    0.0000
     30 H15         4.3440   -2.6524    1.1287 H         1 786    0.0000
@<TRIPOS>BOND
     1    1    2 1
     2    2    3 2
     3    2    4 am
     4    4    5 1
     5    5    6 1
     6    6    7 1
     7    7    8 1
     8    8    9 2
     9    9   10 3
    10    4   11 1
    11   11   12 1
    12   12   13 2
    13   12   14 am
    14   14   15 1
    15    1   16 1
    16    1   17 1
    17    1   18 1
    18    5   19 1
    19    5   20 1
    20    6   21 1
    21    6   22 1
    22    7   23 1
    23    7   24 1
    24   11   25 1
    25   11   26 1
    26   14   27 1
    27   15   28 1
    28   15   29 1
    29   15   30 1
@<TRIPOS>SUBSTRUCTURE
     1 786     1 RESIDUE           4 A     786     0 ROOT
