@<TRIPOS>MOLECULE
smiles:CC(=O)N(CCO)CC(=O)N(C)
26 25 1 0 0
SMALL
NO_CHARGES


@<TRIPOS>ATOM
      1 C1         -0.2839    2.2387   -1.2028 C.3       1 78A    0.0000
      2 C2         -1.0126    1.4662   -0.1335 C.2       1 78A    0.0000
      3 O1         -1.8466    2.0189    0.5520 O.2       1 78A    0.0000
      4 N1         -0.7375    0.1613    0.0610 N.am      1 78A    0.0000
      5 C3         -1.5268   -0.6191    1.0172 C.3       1 78A    0.0000
      6 C4         -2.7260   -1.2423    0.3000 C.3       1 78A    0.0000
      7 O2         -2.2642   -2.1862   -0.6684 O.3       1 78A    0.0000
      8 C5          0.3509   -0.4768   -0.6836 C.3       1 78A    0.0000
      9 C6          1.6558   -0.2396    0.0320 C.2       1 78A    0.0000
     10 O3          1.6747    0.3995    1.0626 O.2       1 78A    0.0000
     11 N2          2.8017   -0.7377   -0.4732 N.am      1 78A    0.0000
     12 C7          4.0702   -0.5071    0.2224 C.3       1 78A    0.0000
     13 H1          0.6565    2.6163   -0.8012 H         1 78A    0.0000
     14 H2         -0.0802    1.5832   -2.0496 H         1 78A    0.0000
     15 H3         -0.9008    3.0752   -1.5310 H         1 78A    0.0000
     16 H4         -0.9066   -1.4088    1.4413 H         1 78A    0.0000
     17 H5         -1.8798    0.0338    1.8153 H         1 78A    0.0000
     18 H6         -3.3611   -1.7487    1.0268 H         1 78A    0.0000
     19 H7         -3.2976   -0.4598   -0.1992 H         1 78A    0.0000
     20 H8         -3.0492   -2.5545   -1.0963 H         1 78A    0.0000
     21 H9          0.1642   -1.5485   -0.7531 H         1 78A    0.0000
     22 H10         0.4036   -0.0515   -1.6858 H         1 78A    0.0000
     23 H11         2.7865   -1.2489   -1.2975 H         1 78A    0.0000
     24 H12         4.8800   -0.9818   -0.3316 H         1 78A    0.0000
     25 H13         4.2569    0.5645    0.2919 H         1 78A    0.0000
     26 H14         4.0175   -0.9324    1.2246 H         1 78A    0.0000
@<TRIPOS>BOND
     1    1    2 1
     2    2    3 2
     3    2    4 am
     4    4    5 1
     5    5    6 1
     6    6    7 1
     7    4    8 1
     8    8    9 1
     9    9   10 2
    10    9   11 am
    11   11   12 1
    12    1   13 1
    13    1   14 1
    14    1   15 1
    15    5   16 1
    16    5   17 1
    17    6   18 1
    18    6   19 1
    19    7   20 1
    20    8   21 1
    21    8   22 1
    22   11   23 1
    23   12   24 1
    24   12   25 1
    25   12   26 1
@<TRIPOS>SUBSTRUCTURE
     1 78A     1 RESIDUE           4 A     78A     0 ROOT
