@<TRIPOS>MOLECULE
smiles:CC(=O)N(c1ccc(F)cc1)CC(=O)N(C)
29 29 1 0 0
SMALL
NO_CHARGES


@<TRIPOS>ATOM
      1 C1          2.1178    2.6431   -0.3430 C.3       1 7A4    0.0000
      2 C2          0.7780    2.0302   -0.0262 C.2       1 7A4    0.0000
      3 O1         -0.0429    2.6604    0.6063 O.2       1 7A4    0.0000
      4 N1          0.4920    0.7817   -0.4457 N.am      1 7A4    0.0000
      5 C3         -0.7980    0.2641   -0.2752 C.ar      1 7A4    0.0000
      6 C4         -1.8237    1.0866    0.1714 C.ar      1 7A4    0.0000
      7 C5         -3.0952    0.5742    0.3389 C.ar      1 7A4    0.0000
      8 C6         -3.3475   -0.7589    0.0619 C.ar      1 7A4    0.0000
      9 F1         -4.5921   -1.2582    0.2261 F         1 7A4    0.0000
     10 C7         -2.3260   -1.5809   -0.3835 C.ar      1 7A4    0.0000
     11 C8         -1.0543   -1.0709   -0.5578 C.ar      1 7A4    0.0000
     12 C9          1.5305   -0.0339   -1.0800 C.3       1 7A4    0.0000
     13 C10         2.3423   -0.7289   -0.0175 C.2       1 7A4    0.0000
     14 O2          2.0792   -0.5597    1.1543 O.2       1 7A4    0.0000
     15 N2          3.3606   -1.5386   -0.3694 N.am      1 7A4    0.0000
     16 C11         4.1498   -2.2143    0.6636 C.3       1 7A4    0.0000
     17 H1          2.7997    2.4770    0.4910 H         1 7A4    0.0000
     18 H2          2.5249    2.1815   -1.2426 H         1 7A4    0.0000
     19 H3          1.9978    3.7141   -0.5065 H         1 7A4    0.0000
     20 H4         -1.6272    2.1263    0.3879 H         1 7A4    0.0000
     21 H5         -3.8932    1.2135    0.6866 H         1 7A4    0.0000
     22 H6         -2.5247   -2.6204   -0.5986 H         1 7A4    0.0000
     23 H7         -0.2578   -1.7123   -0.9052 H         1 7A4    0.0000
     24 H8          1.0643   -0.7779   -1.7259 H         1 7A4    0.0000
     25 H9          2.1824    0.6061   -1.6747 H         1 7A4    0.0000
     26 H10         3.5711   -1.6740   -1.3065 H         1 7A4    0.0000
     27 H11         4.9225   -2.8211    0.1916 H         1 7A4    0.0000
     28 H12         4.6160   -1.4703    1.3094 H         1 7A4    0.0000
     29 H13         3.4979   -2.8543    1.2582 H         1 7A4    0.0000
@<TRIPOS>BOND
     1    1    2 1
     2    2    3 2
     3    2    4 am
     4    4    5 1
     5    5    6 ar
     6    6    7 ar
     7    7    8 ar
     8    8    9 1
     9    8   10 ar
    10   10   11 ar
    11    5   11 ar
    12    4   12 1
    13   12   13 1
    14   13   14 2
    15   13   15 am
    16   15   16 1
    17    1   17 1
    18    1   18 1
    19    1   19 1
    20    6   20 1
    21    7   21 1
    22   10   22 1
    23   11   23 1
    24   12   24 1
    25   12   25 1
    26   15   26 1
    27   16   27 1
    28   16   28 1
    29   16   29 1
@<TRIPOS>SUBSTRUCTURE
     1 7A4     1 RESIDUE           4 A     7A4     0 ROOT
