@<TRIPOS>MOLECULE
smiles:CC(=O)N([C@@H](C)C(C)(C)C)CC(=O)N(C)
37 36 1 0 0
SMALL
NO_CHARGES


@<TRIPOS>ATOM
      1 C1         -0.5683    2.4685    0.8425 C.3       1 850    0.0000
      2 C2          0.2812    1.5021    0.0580 C.2       1 850    0.0000
      3 O1          1.1427    1.9186   -0.6871 O.2       1 850    0.0000
      4 N1          0.0836    0.1749    0.1844 N.am      1 850    0.0000
      5 C3          1.0096   -0.7672   -0.4489 C.3       1 850    0.0000
      6 H1          0.6017   -1.7760   -0.3852 H         1 850    0.0000
      7 C4          1.1997   -0.3857   -1.9183 C.3       1 850    0.0000
      8 C5          2.3594   -0.7166    0.2698 C.3       1 850    0.0000
      9 C6          2.1531   -0.9854    1.7618 C.3       1 850    0.0000
     10 C7          3.2895   -1.7806   -0.3163 C.3       1 850    0.0000
     11 C8          2.9853    0.6669    0.0827 C.3       1 850    0.0000
     12 C9         -1.0573   -0.3256    0.9552 C.3       1 850    0.0000
     13 C10        -2.2849   -0.3435    0.0812 C.2       1 850    0.0000
     14 O2         -2.2138    0.0255   -1.0719 O.2       1 850    0.0000
     15 N2         -3.4618   -0.7696    0.5810 N.am      1 850    0.0000
     16 C11        -4.6552   -0.7870   -0.2686 C.3       1 850    0.0000
     17 H2         -1.4469    2.7384    0.2566 H         1 850    0.0000
     18 H3         -0.8833    2.0009    1.7754 H         1 850    0.0000
     19 H4          0.0109    3.3652    1.0630 H         1 850    0.0000
     20 H5          1.7179    0.5712   -1.9812 H         1 850    0.0000
     21 H6          1.7905   -1.1525   -2.4193 H         1 850    0.0000
     22 H7          0.2259   -0.3039   -2.4013 H         1 850    0.0000
     23 H8          1.6277   -1.9316    1.8913 H         1 850    0.0000
     24 H9          3.1217   -1.0367    2.2591 H         1 850    0.0000
     25 H10         1.5630   -0.1795    2.1981 H         1 850    0.0000
     26 H11         3.4364   -1.5891   -1.3793 H         1 850    0.0000
     27 H12         4.2511   -1.7446    0.1957 H         1 850    0.0000
     28 H13         2.8436   -2.7663   -0.1830 H         1 850    0.0000
     29 H14         2.4172    1.4027    0.6519 H         1 850    0.0000
     30 H15         4.0160    0.6504    0.4369 H         1 850    0.0000
     31 H16         2.9685    0.9334   -0.9741 H         1 850    0.0000
     32 H17        -0.8449   -1.3362    1.3039 H         1 850    0.0000
     33 H18        -1.2308    0.3255    1.8119 H         1 850    0.0000
     34 H19        -3.5187   -1.0648    1.5033 H         1 850    0.0000
     35 H20        -5.5040   -1.1594    0.3049 H         1 850    0.0000
     36 H21        -4.8676    0.2236   -0.6174 H         1 850    0.0000
     37 H22        -4.4818   -1.4381   -1.1254 H         1 850    0.0000
@<TRIPOS>BOND
     1    1    2 1
     2    2    3 2
     3    2    4 am
     4    4    5 1
     5    5    6 1
     6    5    7 1
     7    5    8 1
     8    8    9 1
     9    8   10 1
    10    8   11 1
    11    4   12 1
    12   12   13 1
    13   13   14 2
    14   13   15 am
    15   15   16 1
    16    1   17 1
    17    1   18 1
    18    1   19 1
    19    7   20 1
    20    7   21 1
    21    7   22 1
    22    9   23 1
    23    9   24 1
    24    9   25 1
    25   10   26 1
    26   10   27 1
    27   10   28 1
    28   11   29 1
    29   11   30 1
    30   11   31 1
    31   12   32 1
    32   12   33 1
    33   15   34 1
    34   16   35 1
    35   16   36 1
    36   16   37 1
@<TRIPOS>SUBSTRUCTURE
     1 850     1 RESIDUE           4 A     850     0 ROOT
