@<TRIPOS>MOLECULE
smiles:CC(=O)N([C@H](C)c1cccc2ccccc21)CC(=O)N(C)
41 42 1 0 0
SMALL
NO_CHARGES


@<TRIPOS>ATOM
      1 C1          3.3021   -1.7374   -0.9355 C.3       1 873    0.0000
      2 C2          1.8926   -1.8352   -0.4112 C.2       1 873    0.0000
      3 O1          1.1205   -2.6367   -0.8934 O.2       1 873    0.0000
      4 N1          1.4900   -1.0320    0.5934 N.am      1 873    0.0000
      5 C3          0.0851   -1.0262    1.0085 C.3       1 873    0.0000
      6 H1         -0.0192   -0.4530    1.9297 H         1 873    0.0000
      7 C4         -0.3823   -2.4635    1.2465 C.3       1 873    0.0000
      8 C5         -0.7555   -0.3971   -0.0725 C.ar      1 873    0.0000
      9 C6         -0.2538   -0.2469   -1.3290 C.ar      1 873    0.0000
     10 C7         -1.0160    0.3324   -2.3413 C.ar      1 873    0.0000
     11 C8         -2.2847    0.7646   -2.1034 C.ar      1 873    0.0000
     12 C9         -2.8369    0.6260   -0.8189 C.ar      1 873    0.0000
     13 C10        -4.1430    1.0607   -0.5350 C.ar      1 873    0.0000
     14 C11        -4.6445    0.9104    0.7212 C.ar      1 873    0.0000
     15 C12        -3.8819    0.3312    1.7339 C.ar      1 873    0.0000
     16 C13        -2.6135   -0.1010    1.4961 C.ar      1 873    0.0000
     17 C14        -2.0633    0.0321    0.2097 C.ar      1 873    0.0000
     18 C15         2.4574   -0.1648    1.2704 C.3       1 873    0.0000
     19 C16         2.6326    1.1059    0.4794 C.2       1 873    0.0000
     20 O2          2.0105    1.2709   -0.5486 O.2       1 873    0.0000
     21 N2          3.4804    2.0590    0.9144 N.am      1 873    0.0000
     22 C17         3.6506    3.2943    0.1454 C.3       1 873    0.0000
     23 H2          3.3308   -1.0397   -1.7724 H         1 873    0.0000
     24 H3          3.9606   -1.3817   -0.1431 H         1 873    0.0000
     25 H4          3.6342   -2.7202   -1.2702 H         1 873    0.0000
     26 H5         -0.2583   -3.0422    0.3312 H         1 873    0.0000
     27 H6          0.2117   -2.9116    2.0430 H         1 873    0.0000
     28 H7         -1.4335   -2.4607    1.5349 H         1 873    0.0000
     29 H8          0.7503   -0.5814   -1.5443 H         1 873    0.0000
     30 H9         -0.5938    0.4405   -3.3294 H         1 873    0.0000
     31 H10        -2.8637    1.2121   -2.8977 H         1 873    0.0000
     32 H11        -4.7453    1.5120   -1.3095 H         1 873    0.0000
     33 H12        -5.6484    1.2453    0.9367 H         1 873    0.0000
     34 H13        -4.3038    0.2240    2.7223 H         1 873    0.0000
     35 H14        -2.0342   -0.5472    2.2908 H         1 873    0.0000
     36 H15         2.0929    0.0761    2.2690 H         1 873    0.0000
     37 H16         3.4151   -0.6796    1.3476 H         1 873    0.0000
     38 H17         3.9779    1.9271    1.7365 H         1 873    0.0000
     39 H18         4.3704    3.9395    0.6491 H         1 873    0.0000
     40 H19         4.0152    3.0533   -0.8532 H         1 873    0.0000
     41 H20         2.6930    3.8091    0.0682 H         1 873    0.0000
@<TRIPOS>BOND
     1    1    2 1
     2    2    3 2
     3    2    4 am
     4    4    5 1
     5    5    6 1
     6    5    7 1
     7    5    8 1
     8    8    9 ar
     9    9   10 ar
    10   10   11 ar
    11   11   12 ar
    12   12   13 ar
    13   13   14 ar
    14   14   15 ar
    15   15   16 ar
    16   16   17 ar
    17   12   17 ar
    18    8   17 ar
    19    4   18 1
    20   18   19 1
    21   19   20 2
    22   19   21 am
    23   21   22 1
    24    1   23 1
    25    1   24 1
    26    1   25 1
    27    7   26 1
    28    7   27 1
    29    7   28 1
    30    9   29 1
    31   10   30 1
    32   11   31 1
    33   13   32 1
    34   14   33 1
    35   15   34 1
    36   16   35 1
    37   18   36 1
    38   18   37 1
    39   21   38 1
    40   22   39 1
    41   22   40 1
    42   22   41 1
@<TRIPOS>SUBSTRUCTURE
     1 873     1 RESIDUE           4 A     873     0 ROOT
