@<TRIPOS>MOLECULE
smiles:CC(=O)N(CC#C)CCC(=O)N(C)
27 26 1 0 0
SMALL
NO_CHARGES


@<TRIPOS>ATOM
      1 C1         -3.0661    1.7424    0.4796 C.3       1 8C5    0.0000
      2 C2         -1.7756    1.3012   -0.1615 C.2       1 8C5    0.0000
      3 O1         -1.2053    2.0329   -0.9426 O.2       1 8C5    0.0000
      4 N1         -1.2552    0.0934    0.1333 N.am      1 8C5    0.0000
      5 C3         -2.0012   -0.8380    0.9832 C.3       1 8C5    0.0000
      6 C4         -2.9582   -1.5948    0.1596 C.1       1 8C5    0.0000
      7 C5         -3.7214   -2.1984   -0.4973 C.1       1 8C5    0.0000
      8 C6          0.0564   -0.2881   -0.3961 C.3       1 8C5    0.0000
      9 C7          1.1529    0.2246    0.5398 C.3       1 8C5    0.0000
     10 C8          2.5022   -0.1678   -0.0047 C.2       1 8C5    0.0000
     11 O2          2.5792   -0.7957   -1.0395 O.2       1 8C5    0.0000
     12 N2          3.6232    0.1790    0.6581 N.am      1 8C5    0.0000
     13 C9          4.9349   -0.2025    0.1287 C.3       1 8C5    0.0000
     14 H1         -3.9078    1.3655   -0.1014 H         1 8C5    0.0000
     15 H2         -3.1204    1.3496    1.4949 H         1 8C5    0.0000
     16 H3         -3.1035    2.8314    0.5089 H         1 8C5    0.0000
     17 H4         -1.3071   -1.5293    1.4612 H         1 8C5    0.0000
     18 H5         -2.5417   -0.2794    1.7473 H         1 8C5    0.0000
     19 H6         -4.4040   -2.7382   -1.0848 H         1 8C5    0.0000
     20 H7          0.1178   -1.3741   -0.4670 H         1 8C5    0.0000
     21 H8          0.1899    0.1488   -1.3857 H         1 8C5    0.0000
     22 H9          1.0916    1.3105    0.6108 H         1 8C5    0.0000
     23 H10         1.0195   -0.2123    1.5295 H         1 8C5    0.0000
     24 H11         3.5616    0.6811    1.4857 H         1 8C5    0.0000
     25 H12         5.7160    0.1627    0.7955 H         1 8C5    0.0000
     26 H13         4.9962   -1.2885    0.0578 H         1 8C5    0.0000
     27 H14         5.0683    0.2344   -0.8609 H         1 8C5    0.0000
@<TRIPOS>BOND
     1    1    2 1
     2    2    3 2
     3    2    4 am
     4    4    5 1
     5    5    6 1
     6    6    7 3
     7    4    8 1
     8    8    9 1
     9    9   10 1
    10   10   11 2
    11   10   12 am
    12   12   13 1
    13    1   14 1
    14    1   15 1
    15    1   16 1
    16    5   17 1
    17    5   18 1
    18    7   19 1
    19    8   20 1
    20    8   21 1
    21    9   22 1
    22    9   23 1
    23   12   24 1
    24   13   25 1
    25   13   26 1
    26   13   27 1
@<TRIPOS>SUBSTRUCTURE
     1 8C5     1 RESIDUE           4 A     8C5     0 ROOT
