@<TRIPOS>MOLECULE
smiles:CC(=O)N(c1ccc(C(C)C)cc1)CC(=O)N(C)
38 38 1 0 0
SMALL
NO_CHARGES


@<TRIPOS>ATOM
      1 C1          3.0870    2.3808   -0.2721 C.3       1 95B    0.0000
      2 C2          1.6599    2.0037    0.0319 C.2       1 95B    0.0000
      3 O1          0.9625    2.7482    0.6880 O.2       1 95B    0.0000
      4 N1          1.1586    0.8392   -0.4253 N.am      1 95B    0.0000
      5 C3         -0.2014    0.5520   -0.2649 C.ar      1 95B    0.0000
      6 C4         -1.0670    1.5274    0.2125 C.ar      1 95B    0.0000
      7 C5         -2.4089    1.2407    0.3697 C.ar      1 95B    0.0000
      8 C6         -2.8908   -0.0159    0.0523 C.ar      1 95B    0.0000
      9 C7         -4.3555   -0.3253    0.2251 C.3       1 95B    0.0000
     10 C8         -4.9558   -0.7219   -1.1252 C.3       1 95B    0.0000
     11 C9         -4.5195   -1.4802    1.2151 C.3       1 95B    0.0000
     12 C10        -2.0315   -0.9892   -0.4237 C.ar      1 95B    0.0000
     13 C11        -0.6895   -0.7073   -0.5882 C.ar      1 95B    0.0000
     14 C12         2.0376   -0.1259   -1.0902 C.3       1 95B    0.0000
     15 C13         2.7135   -0.9866   -0.0541 C.2       1 95B    0.0000
     16 O2          2.4835   -0.8112    1.1237 O.2       1 95B    0.0000
     17 N2          3.5734   -1.9514   -0.4364 N.am      1 95B    0.0000
     18 C14         4.2304   -2.7882    0.5708 C.3       1 95B    0.0000
     19 H1          3.7283    2.0706    0.5529 H         1 95B    0.0000
     20 H2          3.4070    1.8837   -1.1878 H         1 95B    0.0000
     21 H3          3.1578    3.4608   -0.4011 H         1 95B    0.0000
     22 H4         -0.6912    2.5090    0.4609 H         1 95B    0.0000
     23 H5         -3.0825    1.9988    0.7413 H         1 95B    0.0000
     24 H6         -4.8705    0.5563    0.6068 H         1 95B    0.0000
     25 H7         -4.4408   -1.6035   -1.5068 H         1 95B    0.0000
     26 H8         -6.0152   -0.9456   -1.0002 H         1 95B    0.0000
     27 H9         -4.8389    0.1010   -1.8305 H         1 95B    0.0000
     28 H10        -4.0046   -2.3618    0.8335 H         1 95B    0.0000
     29 H11        -4.0919   -1.1977    2.1771 H         1 95B    0.0000
     30 H12        -5.5790   -1.7039    1.3401 H         1 95B    0.0000
     31 H13        -2.4110   -1.9696   -0.6710 H         1 95B    0.0000
     32 H14        -0.0190   -1.4679   -0.9600 H         1 95B    0.0000
     33 H15         1.4480   -0.7552   -1.7568 H         1 95B    0.0000
     34 H16         2.7925    0.4079   -1.6676 H         1 95B    0.0000
     35 H17         3.7573   -2.0918   -1.3784 H         1 95B    0.0000
     36 H18         4.8844   -3.5063    0.0761 H         1 95B    0.0000
     37 H19         4.8201   -2.1589    1.2374 H         1 95B    0.0000
     38 H20         3.4756   -3.3219    1.1482 H         1 95B    0.0000
@<TRIPOS>BOND
     1    1    2 1
     2    2    3 2
     3    2    4 am
     4    4    5 1
     5    5    6 ar
     6    6    7 ar
     7    7    8 ar
     8    8    9 1
     9    9   10 1
    10    9   11 1
    11    8   12 ar
    12   12   13 ar
    13    5   13 ar
    14    4   14 1
    15   14   15 1
    16   15   16 2
    17   15   17 am
    18   17   18 1
    19    1   19 1
    20    1   20 1
    21    1   21 1
    22    6   22 1
    23    7   23 1
    24    9   24 1
    25   10   25 1
    26   10   26 1
    27   10   27 1
    28   11   28 1
    29   11   29 1
    30   11   30 1
    31   12   31 1
    32   13   32 1
    33   14   33 1
    34   14   34 1
    35   17   35 1
    36   18   36 1
    37   18   37 1
    38   18   38 1
@<TRIPOS>SUBSTRUCTURE
     1 95B     1 RESIDUE           4 A     95B     0 ROOT
