@<TRIPOS>MOLECULE
smiles:CC(=O)N(c1cc(C)cc(C)c1)CC(=O)N(C)
35 35 1 0 0
SMALL
NO_CHARGES


@<TRIPOS>ATOM
      1 C1          1.9043    2.8052   -0.5823 C.3       1 95D    0.0000
      2 C2          0.6301    2.0927   -0.2085 C.2       1 95D    0.0000
      3 O1         -0.2553    2.6933    0.3627 O.2       1 95D    0.0000
      4 N1          0.4745    0.7881   -0.5090 N.am      1 95D    0.0000
      5 C3         -0.7574    0.1618   -0.2899 C.ar      1 95D    0.0000
      6 C4         -1.8649    0.9144    0.0785 C.ar      1 95D    0.0000
      7 C5         -3.0794    0.2933    0.2940 C.ar      1 95D    0.0000
      8 C6         -4.2818    1.1093    0.6933 C.3       1 95D    0.0000
      9 C7         -3.1935   -1.0766    0.1433 C.ar      1 95D    0.0000
     10 C8         -2.0925   -1.8289   -0.2230 C.ar      1 95D    0.0000
     11 C9         -2.2212   -3.3216   -0.3856 C.3       1 95D    0.0000
     12 C10        -0.8766   -1.2129   -0.4460 C.ar      1 95D    0.0000
     13 C11         1.5952    0.0257   -1.0649 C.3       1 95D    0.0000
     14 C12         2.4634   -0.4818    0.0575 C.2       1 95D    0.0000
     15 O2          2.1744   -0.2314    1.2085 O.2       1 95D    0.0000
     16 N2          3.5609   -1.2141   -0.2177 N.am      1 95D    0.0000
     17 C13         4.4049   -1.7075    0.8734 C.3       1 95D    0.0000
     18 H1          2.5922    2.7872    0.2631 H         1 95D    0.0000
     19 H2          2.3635    2.3051   -1.4351 H         1 95D    0.0000
     20 H3          1.6790    3.8387   -0.8454 H         1 95D    0.0000
     21 H4         -1.7763    1.9843    0.1967 H         1 95D    0.0000
     22 H5         -4.8133    1.4347   -0.2009 H         1 95D    0.0000
     23 H6         -4.9449    0.5018    1.3092 H         1 95D    0.0000
     24 H7         -3.9569    1.9815    1.2605 H         1 95D    0.0000
     25 H8         -4.1443   -1.5600    0.3124 H         1 95D    0.0000
     26 H9         -2.4938   -3.5527   -1.4153 H         1 95D    0.0000
     27 H10        -1.2697   -3.7965   -0.1463 H         1 95D    0.0000
     28 H11        -2.9931   -3.6951    0.2872 H         1 95D    0.0000
     29 H12        -0.0171   -1.8010   -0.7320 H         1 95D    0.0000
     30 H13         1.2117   -0.8185   -1.6378 H         1 95D    0.0000
     31 H14         2.1847    0.6698   -1.7174 H         1 95D    0.0000
     32 H15         3.7920   -1.4144   -1.1383 H         1 95D    0.0000
     33 H16         5.2387   -2.2747    0.4598 H         1 95D    0.0000
     34 H17         4.7884   -0.8632    1.4463 H         1 95D    0.0000
     35 H18         3.8154   -2.3516    1.5259 H         1 95D    0.0000
@<TRIPOS>BOND
     1    1    2 1
     2    2    3 2
     3    2    4 am
     4    4    5 1
     5    5    6 ar
     6    6    7 ar
     7    7    8 1
     8    7    9 ar
     9    9   10 ar
    10   10   11 1
    11   10   12 ar
    12    5   12 ar
    13    4   13 1
    14   13   14 1
    15   14   15 2
    16   14   16 am
    17   16   17 1
    18    1   18 1
    19    1   19 1
    20    1   20 1
    21    6   21 1
    22    8   22 1
    23    8   23 1
    24    8   24 1
    25    9   25 1
    26   11   26 1
    27   11   27 1
    28   11   28 1
    29   12   29 1
    30   13   30 1
    31   13   31 1
    32   16   32 1
    33   17   33 1
    34   17   34 1
    35   17   35 1
@<TRIPOS>SUBSTRUCTURE
     1 95D     1 RESIDUE           4 A     95D     0 ROOT
