@<TRIPOS>MOLECULE
smiles:CC(=O)N(CCC(=O)O)CC(=O)N(C)
28 27 1 0 0
SMALL
NO_CHARGES


@<TRIPOS>ATOM
      1 C1          1.4536    2.6186   -0.5945 C.3       1 984    0.0000
      2 C2          0.3220    1.8819    0.0746 C.2       1 984    0.0000
      3 O1         -0.4290    2.4732    0.8213 O.2       1 984    0.0000
      4 N1          0.1444    0.5661   -0.1566 N.am      1 984    0.0000
      5 C3         -1.0227   -0.1242    0.3981 C.3       1 984    0.0000
      6 C4         -2.1794   -0.0537   -0.6009 C.3       1 984    0.0000
      7 C5         -3.3799   -0.7637   -0.0303 C.2       1 984    0.0000
      8 O2         -3.3168   -1.2738    1.0632 O.2       1 984    0.0000
      9 O3         -4.5193   -0.8295   -0.7368 O.3       1 984    0.0000
     10 C6          1.1184   -0.1740   -0.9627 C.3       1 984    0.0000
     11 C7          2.2544   -0.6305   -0.0839 C.2       1 984    0.0000
     12 O4          2.2507   -0.3639    1.0992 O.2       1 984    0.0000
     13 N2          3.2744   -1.3350   -0.6128 N.am      1 984    0.0000
     14 C8          4.3787   -1.7787    0.2415 C.3       1 984    0.0000
     15 H1          2.3600    2.5104    0.0011 H         1 984    0.0000
     16 H2          1.6202    2.2032   -1.5884 H         1 984    0.0000
     17 H3          1.1991    3.6750   -0.6803 H         1 984    0.0000
     18 H4         -0.7709   -1.1673    0.5894 H         1 984    0.0000
     19 H5         -1.3188    0.3552    1.3312 H         1 984    0.0000
     20 H6         -2.4312    0.9894   -0.7922 H         1 984    0.0000
     21 H7         -1.8833   -0.5330   -1.5340 H         1 984    0.0000
     22 H8         -5.2897   -1.2851   -0.3707 H         1 984    0.0000
     23 H9          0.6346   -1.0417   -1.4111 H         1 984    0.0000
     24 H10         1.5054    0.4733   -1.7497 H         1 984    0.0000
     25 H11         3.2774   -1.5482   -1.5591 H         1 984    0.0000
     26 H12         5.1034   -2.3293   -0.3583 H         1 984    0.0000
     27 H13         4.8626   -0.9110    0.6898 H         1 984    0.0000
     28 H14         3.9918   -2.4260    1.0285 H         1 984    0.0000
@<TRIPOS>BOND
     1    1    2 1
     2    2    3 2
     3    2    4 am
     4    4    5 1
     5    5    6 1
     6    6    7 1
     7    7    8 2
     8    7    9 1
     9    4   10 1
    10   10   11 1
    11   11   12 2
    12   11   13 am
    13   13   14 1
    14    1   15 1
    15    1   16 1
    16    1   17 1
    17    5   18 1
    18    5   19 1
    19    6   20 1
    20    6   21 1
    21    9   22 1
    22   10   23 1
    23   10   24 1
    24   13   25 1
    25   14   26 1
    26   14   27 1
    27   14   28 1
@<TRIPOS>SUBSTRUCTURE
     1 984     1 RESIDUE           4 A     984     0 ROOT
