@<TRIPOS>MOLECULE
smiles:CC(=O)N(Cc1ccccc1)CC(=O)N(C)
32 32 1 0 0
SMALL
NO_CHARGES


@<TRIPOS>ATOM
      1 C1          1.2698    2.2438   -1.4011 C.3       1 9CD    0.0000
      2 C2          0.4385    1.7852   -0.2308 C.2       1 9CD    0.0000
      3 O1         -0.1802    2.5943    0.4276 O.2       1 9CD    0.0000
      4 N1          0.3824    0.4759    0.0841 N.am      1 9CD    0.0000
      5 C3         -0.5165    0.0157    1.1454 C.3       1 9CD    0.0000
      6 C4         -1.8588   -0.3280    0.5528 C.ar      1 9CD    0.0000
      7 C5         -2.1079   -1.6113    0.1033 C.ar      1 9CD    0.0000
      8 C6         -3.3391   -1.9264   -0.4403 C.ar      1 9CD    0.0000
      9 C7         -4.3215   -0.9585   -0.5340 C.ar      1 9CD    0.0000
     10 C8         -4.0728    0.3246   -0.0837 C.ar      1 9CD    0.0000
     11 C9         -2.8430    0.6387    0.4639 C.ar      1 9CD    0.0000
     12 C10         1.2204   -0.4869   -0.6349 C.3       1 9CD    0.0000
     13 C11         2.5856   -0.5380    0.0012 C.2       1 9CD    0.0000
     14 O2          2.8342    0.1611    0.9606 O.2       1 9CD    0.0000
     15 N2          3.5304   -1.3605   -0.4961 N.am      1 9CD    0.0000
     16 C12         4.8576   -1.4101    0.1223 C.3       1 9CD    0.0000
     17 H1          2.2991    2.3980   -1.0774 H         1 9CD    0.0000
     18 H2          1.2449    1.4855   -2.1838 H         1 9CD    0.0000
     19 H3          0.8667    3.1794   -1.7887 H         1 9CD    0.0000
     20 H4         -0.0929   -0.8682    1.6224 H         1 9CD    0.0000
     21 H5         -0.6380    0.8056    1.8866 H         1 9CD    0.0000
     22 H6         -1.3404   -2.3675    0.1765 H         1 9CD    0.0000
     23 H7         -3.5335   -2.9289   -0.7921 H         1 9CD    0.0000
     24 H8         -5.2833   -1.2045   -0.9594 H         1 9CD    0.0000
     25 H9         -4.8402    1.0810   -0.1572 H         1 9CD    0.0000
     26 H10        -2.6487    1.6411    0.8157 H         1 9CD    0.0000
     27 H11         0.7609   -1.4742   -0.5886 H         1 9CD    0.0000
     28 H12         1.3160   -0.1791   -1.6761 H         1 9CD    0.0000
     29 H13         3.3316   -1.9196   -1.2634 H         1 9CD    0.0000
     30 H14         5.4811   -2.1265   -0.4127 H         1 9CD    0.0000
     31 H15         5.3171   -0.4228    0.0760 H         1 9CD    0.0000
     32 H16         4.7620   -1.7180    1.1635 H         1 9CD    0.0000
@<TRIPOS>BOND
     1    1    2 1
     2    2    3 2
     3    2    4 am
     4    4    5 1
     5    5    6 1
     6    6    7 ar
     7    7    8 ar
     8    8    9 ar
     9    9   10 ar
    10   10   11 ar
    11    6   11 ar
    12    4   12 1
    13   12   13 1
    14   13   14 2
    15   13   15 am
    16   15   16 1
    17    1   17 1
    18    1   18 1
    19    1   19 1
    20    5   20 1
    21    5   21 1
    22    7   22 1
    23    8   23 1
    24    9   24 1
    25   10   25 1
    26   11   26 1
    27   12   27 1
    28   12   28 1
    29   15   29 1
    30   16   30 1
    31   16   31 1
    32   16   32 1
@<TRIPOS>SUBSTRUCTURE
     1 9CD     1 RESIDUE           4 A     9CD     0 ROOT
