@<TRIPOS>MOLECULE
smiles:CC(=O)N(CC[N+](Cc1ccccc1)(CC)CC)CC(=O)N(C)
53 53 1 0 0
SMALL
NO_CHARGES


@<TRIPOS>ATOM
      1 C1          4.1076    2.2654   -0.9591 C.3       1 A17    0.0000
      2 C2          2.8342    1.9057   -0.2378 C.2       1 A17    0.0000
      3 O1          2.2092    2.7612    0.3525 O.2       1 A17    0.0000
      4 N1          2.3900    0.6333   -0.2485 N.am      1 A17    0.0000
      5 C3          1.0940    0.3048    0.3503 C.3       1 A17    0.0000
      6 C4         -0.0029    0.4266   -0.7093 C.3       1 A17    0.0000
      7 N2         -1.3025    0.0972   -0.1089 N.4       1 A17    0.0000
      8 C5         -2.3557    0.2142   -1.1262 C.3       1 A17    0.0000
      9 C6         -3.6889   -0.1237   -0.5102 C.ar      1 A17    0.0000
     10 C7         -4.4563    0.8714    0.0659 C.ar      1 A17    0.0000
     11 C8         -5.6792    0.5614    0.6310 C.ar      1 A17    0.0000
     12 C9         -6.1349   -0.7436    0.6195 C.ar      1 A17    0.0000
     13 C10        -5.3680   -1.7385    0.0426 C.ar      1 A17    0.0000
     14 C11        -4.1471   -1.4278   -0.5263 C.ar      1 A17    0.0000
     15 C12        -1.2696   -1.2782    0.4059 C.3       1 A17    0.0000
     16 C13        -0.9786   -2.2459   -0.7430 C.3       1 A17    0.0000
     17 C14        -1.5819    1.0263    0.9942 C.3       1 A17    0.0000
     18 C15        -1.6162    2.4589    0.4581 C.3       1 A17    0.0000
     19 C16         3.2032   -0.4213   -0.8591 C.3       1 A17    0.0000
     20 C17         4.2016   -0.9321    0.1476 C.2       1 A17    0.0000
     21 O2          4.2310   -0.4615    1.2650 O.2       1 A17    0.0000
     22 N3          5.0618   -1.9118   -0.1939 N.am      1 A17    0.0000
     23 C18         6.0324   -2.4084    0.7847 C.3       1 A17    0.0000
     24 H1          4.9597    2.0854   -0.3037 H         1 A17    0.0000
     25 H2          4.2028    1.6527   -1.8555 H         1 A17    0.0000
     26 H3          4.0811    3.3183   -1.2398 H         1 A17    0.0000
     27 H4          1.1185   -0.7158    0.7322 H         1 A17    0.0000
     28 H5          0.8867    0.9942    1.1687 H         1 A17    0.0000
     29 H6         -0.0274    1.4472   -1.0913 H         1 A17    0.0000
     30 H7          0.2043   -0.2627   -1.5278 H         1 A17    0.0000
     31 H8         -2.3802    1.2348   -1.5082 H         1 A17    0.0000
     32 H9         -2.1485   -0.4752   -1.9447 H         1 A17    0.0000
     33 H10        -4.1002    1.8910    0.0748 H         1 A17    0.0000
     34 H11        -6.2783    1.3387    1.0817 H         1 A17    0.0000
     35 H12        -7.0901   -0.9859    1.0616 H         1 A17    0.0000
     36 H13        -5.7240   -2.7582    0.0340 H         1 A17    0.0000
     37 H14        -3.5479   -2.2052   -0.9770 H         1 A17    0.0000
     38 H15        -0.4881   -1.3650    1.1608 H         1 A17    0.0000
     39 H16        -2.2338   -1.5226    0.8514 H         1 A17    0.0000
     40 H17        -0.9542   -3.2665   -0.3610 H         1 A17    0.0000
     41 H18        -1.7601   -2.1591   -1.4979 H         1 A17    0.0000
     42 H19        -0.0143   -2.0015   -1.1885 H         1 A17    0.0000
     43 H20        -2.5462    0.7819    1.4397 H         1 A17    0.0000
     44 H21        -0.8004    0.9395    1.7491 H         1 A17    0.0000
     45 H22        -1.8235    3.1483    1.2765 H         1 A17    0.0000
     46 H23        -0.6519    2.7033    0.0125 H         1 A17    0.0000
     47 H24        -2.3977    2.5457   -0.2968 H         1 A17    0.0000
     48 H25         2.5574   -1.2395   -1.1777 H         1 A17    0.0000
     49 H26         3.7320   -0.0182   -1.7229 H         1 A17    0.0000
     50 H27         5.0384   -2.2881   -1.0876 H         1 A17    0.0000
     51 H28         6.6374   -3.1930    0.3305 H         1 A17    0.0000
     52 H29         6.6782   -1.5901    1.1034 H         1 A17    0.0000
     53 H30         5.5037   -2.8114    1.6485 H         1 A17    0.0000
@<TRIPOS>BOND
     1    1    2 1
     2    2    3 2
     3    2    4 am
     4    4    5 1
     5    5    6 1
     6    6    7 1
     7    7    8 1
     8    8    9 1
     9    9   10 ar
    10   10   11 ar
    11   11   12 ar
    12   12   13 ar
    13   13   14 ar
    14    9   14 ar
    15    7   15 1
    16   15   16 1
    17    7   17 1
    18   17   18 1
    19    4   19 1
    20   19   20 1
    21   20   21 2
    22   20   22 am
    23   22   23 1
    24    1   24 1
    25    1   25 1
    26    1   26 1
    27    5   27 1
    28    5   28 1
    29    6   29 1
    30    6   30 1
    31    8   31 1
    32    8   32 1
    33   10   33 1
    34   11   34 1
    35   12   35 1
    36   13   36 1
    37   14   37 1
    38   15   38 1
    39   15   39 1
    40   16   40 1
    41   16   41 1
    42   16   42 1
    43   17   43 1
    44   17   44 1
    45   18   45 1
    46   18   46 1
    47   18   47 1
    48   19   48 1
    49   19   49 1
    50   22   50 1
    51   23   51 1
    52   23   52 1
    53   23   53 1
@<TRIPOS>SUBSTRUCTURE
     1 A17     1 RESIDUE           4 A     A17     0 ROOT
