@<TRIPOS>MOLECULE
smiles:CC(=O)N(CC[N+](CC)(CC)CC#C)CC(=O)N(C)
45 44 1 0 0
SMALL
NO_CHARGES


@<TRIPOS>ATOM
      1 C1          2.8372    2.4342   -1.0243 C.3       1 A6D    0.0000
      2 C2          1.6307    1.9600   -0.2559 C.2       1 A6D    0.0000
      3 O1          0.9545    2.7547    0.3623 O.2       1 A6D    0.0000
      4 N1          1.3030    0.6526   -0.2556 N.am      1 A6D    0.0000
      5 C3          0.0663    0.2076    0.3915 C.3       1 A6D    0.0000
      6 C4         -1.0777    0.2312   -0.6242 C.3       1 A6D    0.0000
      7 N2         -2.3178   -0.2151    0.0247 N.4       1 A6D    0.0000
      8 C5         -2.1407   -1.5826    0.5311 C.3       1 A6D    0.0000
      9 C6         -1.8088   -2.5185   -0.6328 C.3       1 A6D    0.0000
     10 C7         -2.6365    0.6835    1.1422 C.3       1 A6D    0.0000
     11 C8         -2.8209    2.1078    0.6147 C.3       1 A6D    0.0000
     12 C9         -3.4162   -0.1924   -0.9505 C.3       1 A6D    0.0000
     13 C10        -4.6588   -0.6396   -0.3003 C.1       1 A6D    0.0000
     14 C11        -5.6499   -0.9963    0.2182 C.1       1 A6D    0.0000
     15 C12         2.1836   -0.3233   -0.9023 C.3       1 A6D    0.0000
     16 C13         3.2626   -0.7431    0.0624 C.2       1 A6D    0.0000
     17 O2          3.2930   -0.2733    1.1801 O.2       1 A6D    0.0000
     18 N3          4.1937   -1.6407   -0.3169 N.am      1 A6D    0.0000
     19 C14         5.2426   -2.0488    0.6209 C.3       1 A6D    0.0000
     20 H1          3.7271    2.3311   -0.4033 H         1 A6D    0.0000
     21 H2          2.9523    1.8338   -1.9267 H         1 A6D    0.0000
     22 H3          2.7049    3.4808   -1.2987 H         1 A6D    0.0000
     23 H4          0.1977   -0.8071    0.7673 H         1 A6D    0.0000
     24 H5         -0.1702    0.8744    1.2207 H         1 A6D    0.0000
     25 H6         -1.2091    1.2459   -0.9999 H         1 A6D    0.0000
     26 H7         -0.8412   -0.4356   -1.4534 H         1 A6D    0.0000
     27 H8         -1.3257   -1.5994    1.2547 H         1 A6D    0.0000
     28 H9         -3.0609   -1.9137    1.0126 H         1 A6D    0.0000
     29 H10        -1.6774   -3.5332   -0.2570 H         1 A6D    0.0000
     30 H11        -2.6238   -2.5017   -1.3564 H         1 A6D    0.0000
     31 H12        -0.8886   -2.1874   -1.1142 H         1 A6D    0.0000
     32 H13        -3.5567    0.3524    1.6236 H         1 A6D    0.0000
     33 H14        -1.8215    0.6667    1.8658 H         1 A6D    0.0000
     34 H15        -3.0574    2.7746    1.4439 H         1 A6D    0.0000
     35 H16        -1.9008    2.4390    0.1333 H         1 A6D    0.0000
     36 H17        -3.6360    2.1246   -0.1088 H         1 A6D    0.0000
     37 H18        -3.5476    0.8223   -1.3263 H         1 A6D    0.0000
     38 H19        -3.1797   -0.8592   -1.7797 H         1 A6D    0.0000
     39 H20        -6.5363   -1.3152    0.6820 H         1 A6D    0.0000
     40 H21         1.6023   -1.1962   -1.1996 H         1 A6D    0.0000
     41 H22         2.6397    0.1270   -1.7840 H         1 A6D    0.0000
     42 H23         4.1694   -2.0164   -1.2108 H         1 A6D    0.0000
     43 H24         5.8978   -2.7749    0.1398 H         1 A6D    0.0000
     44 H25         5.8239   -1.1759    0.9182 H         1 A6D    0.0000
     45 H26         4.7866   -2.4991    1.5026 H         1 A6D    0.0000
@<TRIPOS>BOND
     1    1    2 1
     2    2    3 2
     3    2    4 am
     4    4    5 1
     5    5    6 1
     6    6    7 1
     7    7    8 1
     8    8    9 1
     9    7   10 1
    10   10   11 1
    11    7   12 1
    12   12   13 1
    13   13   14 3
    14    4   15 1
    15   15   16 1
    16   16   17 2
    17   16   18 am
    18   18   19 1
    19    1   20 1
    20    1   21 1
    21    1   22 1
    22    5   23 1
    23    5   24 1
    24    6   25 1
    25    6   26 1
    26    8   27 1
    27    8   28 1
    28    9   29 1
    29    9   30 1
    30    9   31 1
    31   10   32 1
    32   10   33 1
    33   11   34 1
    34   11   35 1
    35   11   36 1
    36   12   37 1
    37   12   38 1
    38   14   39 1
    39   15   40 1
    40   15   41 1
    41   18   42 1
    42   19   43 1
    43   19   44 1
    44   19   45 1
@<TRIPOS>SUBSTRUCTURE
     1 A6D     1 RESIDUE           4 A     A6D     0 ROOT
