@<TRIPOS>MOLECULE
smiles:CC(=O)N([C@H](C)C1CCCCC1)CC(=O)N(C)
41 41 1 0 0
SMALL
NO_CHARGES


@<TRIPOS>ATOM
      1 C1         -1.5262    2.5814   -0.8461 C.3       1 A85    0.0000
      2 C2         -0.5123    1.7766   -0.0745 C.2       1 A85    0.0000
      3 O1          0.3413    2.3407    0.5767 O.2       1 A85    0.0000
      4 N1         -0.5541    0.4299   -0.1080 N.am      1 A85    0.0000
      5 C3          0.3591   -0.3524    0.7288 C.3       1 A85    0.0000
      6 H1          0.1432   -1.4140    0.6080 H         1 A85    0.0000
      7 C4          0.1720    0.0425    2.1950 C.3       1 A85    0.0000
      8 C5          1.8030   -0.0743    0.3059 C.3       1 A85    0.0000
      9 C6          2.7508   -0.9663    1.1103 C.3       1 A85    0.0000
     10 C7          4.1946   -0.6882    0.6875 C.3       1 A85    0.0000
     11 C8          4.3558   -0.9873   -0.8043 C.3       1 A85    0.0000
     12 C9          3.4080   -0.0954   -1.6087 C.3       1 A85    0.0000
     13 C10         1.9641   -0.3735   -1.1858 C.3       1 A85    0.0000
     14 C11        -1.5128   -0.2517   -0.9813 C.3       1 A85    0.0000
     15 C12        -2.7756   -0.5414   -0.2116 C.2       1 A85    0.0000
     16 O2         -2.9049   -0.1253    0.9202 O.2       1 A85    0.0000
     17 N2         -3.7613   -1.2629   -0.7810 N.am      1 A85    0.0000
     18 C13        -4.9889   -1.5446   -0.0328 C.3       1 A85    0.0000
     19 H2         -1.1233    2.8273   -1.8286 H         1 A85    0.0000
     20 H3         -2.4396    1.9984   -0.9635 H         1 A85    0.0000
     21 H4         -1.7489    3.5005   -0.3042 H         1 A85    0.0000
     22 H5          0.3879    1.1041    2.3158 H         1 A85    0.0000
     23 H6         -0.8567   -0.1556    2.4963 H         1 A85    0.0000
     24 H7          0.8514   -0.5396    2.8176 H         1 A85    0.0000
     25 H8          2.0415    0.9724    0.4945 H         1 A85    0.0000
     26 H9          2.6359   -0.7532    2.1731 H         1 A85    0.0000
     27 H10         2.5122   -2.0130    0.9218 H         1 A85    0.0000
     28 H11         4.4332    0.3586    0.8760 H         1 A85    0.0000
     29 H12         4.8698   -1.3236    1.2605 H         1 A85    0.0000
     30 H13         5.3844   -0.7892   -1.1056 H         1 A85    0.0000
     31 H14         4.1172   -2.0341   -0.9928 H         1 A85    0.0000
     32 H15         3.6466    0.9514   -1.4202 H         1 A85    0.0000
     33 H16         3.5228   -0.3085   -2.6715 H         1 A85    0.0000
     34 H17         1.7256   -1.4202   -1.3744 H         1 A85    0.0000
     35 H18         1.2889    0.2620   -1.7589 H         1 A85    0.0000
     36 H19        -1.7453    0.3866   -1.8338 H         1 A85    0.0000
     37 H20        -1.0803   -1.1875   -1.3354 H         1 A85    0.0000
     38 H21        -3.6580   -1.5957   -1.6863 H         1 A85    0.0000
     39 H22        -5.6641   -2.1357   -0.6516 H         1 A85    0.0000
     40 H23        -4.7436   -2.1016    0.8715 H         1 A85    0.0000
     41 H24        -5.4725   -0.6062    0.2385 H         1 A85    0.0000
@<TRIPOS>BOND
     1    1    2 1
     2    2    3 2
     3    2    4 am
     4    4    5 1
     5    5    6 1
     6    5    7 1
     7    5    8 1
     8    8    9 1
     9    9   10 1
    10   10   11 1
    11   11   12 1
    12   12   13 1
    13    8   13 1
    14    4   14 1
    15   14   15 1
    16   15   16 2
    17   15   17 am
    18   17   18 1
    19    1   19 1
    20    1   20 1
    21    1   21 1
    22    7   22 1
    23    7   23 1
    24    7   24 1
    25    8   25 1
    26    9   26 1
    27    9   27 1
    28   10   28 1
    29   10   29 1
    30   11   30 1
    31   11   31 1
    32   12   32 1
    33   12   33 1
    34   13   34 1
    35   13   35 1
    36   14   36 1
    37   14   37 1
    38   17   38 1
    39   18   39 1
    40   18   40 1
    41   18   41 1
@<TRIPOS>SUBSTRUCTURE
     1 A85     1 RESIDUE           4 A     A85     0 ROOT
