@<TRIPOS>MOLECULE
smiles:CC(=O)N(c1c(C)cccc1)CC(=O)N(C)
32 32 1 0 0
SMALL
NO_CHARGES


@<TRIPOS>ATOM
      1 C1         -1.3582    2.7362    0.4630 C.3       1 AE6    0.0000
      2 C2         -0.1173    1.8860    0.5547 C.2       1 AE6    0.0000
      3 O1          0.8190    2.2509    1.2337 O.2       1 AE6    0.0000
      4 N1         -0.0481    0.7200   -0.1178 N.am      1 AE6    0.0000
      5 C3          1.0643   -0.1139    0.0405 C.ar      1 AE6    0.0000
      6 C4          2.1315   -0.0258   -0.8441 C.ar      1 AE6    0.0000
      7 C5          2.0933    0.9687   -1.9757 C.3       1 AE6    0.0000
      8 C6          3.2279   -0.8502   -0.6853 C.ar      1 AE6    0.0000
      9 C7          3.2640   -1.7629    0.3532 C.ar      1 AE6    0.0000
     10 C8          2.2031   -1.8534    1.2352 C.ar      1 AE6    0.0000
     11 C9          1.1061   -1.0273    1.0854 C.ar      1 AE6    0.0000
     12 C10        -1.1375    0.3257   -1.0144 C.3       1 AE6    0.0000
     13 C11        -2.1742   -0.4438   -0.2371 C.2       1 AE6    0.0000
     14 O2         -2.0650   -0.5646    0.9647 O.2       1 AE6    0.0000
     15 N2         -3.2227   -0.9979   -0.8776 N.am      1 AE6    0.0000
     16 C12        -4.2305   -1.7460   -0.1220 C.3       1 AE6    0.0000
     17 H1         -1.3016    3.3672   -0.4239 H         1 AE6    0.0000
     18 H2         -2.2354    2.0926    0.3956 H         1 AE6    0.0000
     19 H3         -1.4352    3.3635    1.3510 H         1 AE6    0.0000
     20 H4          2.5586    1.9011   -1.6558 H         1 AE6    0.0000
     21 H5          2.6358    0.5667   -2.8313 H         1 AE6    0.0000
     22 H6          1.0577    1.1578   -2.2583 H         1 AE6    0.0000
     23 H7          4.0579   -0.7825   -1.3729 H         1 AE6    0.0000
     24 H8          4.1226   -2.4066    0.4753 H         1 AE6    0.0000
     25 H9          2.2341   -2.5674    2.0449 H         1 AE6    0.0000
     26 H10         0.2779   -1.0982    1.7749 H         1 AE6    0.0000
     27 H11        -1.5939    1.2168   -1.4453 H         1 AE6    0.0000
     28 H12        -0.7418   -0.3021   -1.8127 H         1 AE6    0.0000
     29 H13        -3.3100   -0.9012   -1.8388 H         1 AE6    0.0000
     30 H14        -4.9954   -2.1163   -0.8045 H         1 AE6    0.0000
     31 H15        -3.7557   -2.5874    0.3827 H         1 AE6    0.0000
     32 H16        -4.6902   -1.0908    0.6180 H         1 AE6    0.0000
@<TRIPOS>BOND
     1    1    2 1
     2    2    3 2
     3    2    4 am
     4    4    5 1
     5    5    6 ar
     6    6    7 1
     7    6    8 ar
     8    8    9 ar
     9    9   10 ar
    10   10   11 ar
    11    5   11 ar
    12    4   12 1
    13   12   13 1
    14   13   14 2
    15   13   15 am
    16   15   16 1
    17    1   17 1
    18    1   18 1
    19    1   19 1
    20    7   20 1
    21    7   21 1
    22    7   22 1
    23    8   23 1
    24    9   24 1
    25   10   25 1
    26   11   26 1
    27   12   27 1
    28   12   28 1
    29   15   29 1
    30   16   30 1
    31   16   31 1
    32   16   32 1
@<TRIPOS>SUBSTRUCTURE
     1 AE6     1 RESIDUE           4 A     AE6     0 ROOT
