@<TRIPOS>MOLECULE
smiles:CC(=O)N(c1c(O)cccc1)CC(=O)N(C)
30 30 1 0 0
SMALL
NO_CHARGES


@<TRIPOS>ATOM
      1 C1         -1.0097    2.4315    1.1557 C.3       1 B49    0.0000
      2 C2          0.1017    1.9950    0.2362 C.2       1 B49    0.0000
      3 O1          1.0802    2.6970    0.0917 O.2       1 B49    0.0000
      4 N1          0.0083    0.8246   -0.4255 N.am      1 B49    0.0000
      5 C3         -1.1686    0.0681   -0.3483 C.ar      1 B49    0.0000
      6 C4         -1.3197   -0.8885    0.6536 C.ar      1 B49    0.0000
      7 O2         -0.3256   -1.0899    1.5591 O.3       1 B49    0.0000
      8 C5         -2.4852   -1.6334    0.7249 C.ar      1 B49    0.0000
      9 C6         -3.4955   -1.4271   -0.1965 C.ar      1 B49    0.0000
     10 C7         -3.3463   -0.4783   -1.1907 C.ar      1 B49    0.0000
     11 C8         -2.1884    0.2733   -1.2653 C.ar      1 B49    0.0000
     12 C9          1.1373    0.3434   -1.2255 C.3       1 B49    0.0000
     13 C10         2.1189   -0.3694   -0.3313 C.2       1 B49    0.0000
     14 O3          1.8972   -0.4659    0.8572 O.2       1 B49    0.0000
     15 N2          3.2431   -0.8997   -0.8523 N.am      1 B49    0.0000
     16 C11         4.1973   -1.5926    0.0169 C.3       1 B49    0.0000
     17 H1         -1.6989    3.0773    0.6115 H         1 B49    0.0000
     18 H2         -1.5447    1.5548    1.5207 H         1 B49    0.0000
     19 H3         -0.5893    2.9782    1.9998 H         1 B49    0.0000
     20 H4         -0.4965   -0.4916    2.2994 H         1 B49    0.0000
     21 H5         -2.6049   -2.3757    1.5002 H         1 B49    0.0000
     22 H6         -4.4035   -2.0092   -0.1395 H         1 B49    0.0000
     23 H7         -4.1380   -0.3207   -1.9081 H         1 B49    0.0000
     24 H8         -2.0745    1.0139   -2.0431 H         1 B49    0.0000
     25 H9          0.7746   -0.3453   -1.9885 H         1 B49    0.0000
     26 H10         1.6302    1.1895   -1.7043 H         1 B49    0.0000
     27 H11         3.4204   -0.8225   -1.8029 H         1 B49    0.0000
     28 H12         5.0373   -1.9507   -0.5783 H         1 B49    0.0000
     29 H13         4.5601   -0.9040    0.7800 H         1 B49    0.0000
     30 H14         3.7045   -2.4387    0.4957 H         1 B49    0.0000
@<TRIPOS>BOND
     1    1    2 1
     2    2    3 2
     3    2    4 am
     4    4    5 1
     5    5    6 ar
     6    6    7 1
     7    6    8 ar
     8    8    9 ar
     9    9   10 ar
    10   10   11 ar
    11    5   11 ar
    12    4   12 1
    13   12   13 1
    14   13   14 2
    15   13   15 am
    16   15   16 1
    17    1   17 1
    18    1   18 1
    19    1   19 1
    20    7   20 1
    21    8   21 1
    22    9   22 1
    23   10   23 1
    24   11   24 1
    25   12   25 1
    26   12   26 1
    27   15   27 1
    28   16   28 1
    29   16   29 1
    30   16   30 1
@<TRIPOS>SUBSTRUCTURE
     1 B49     1 RESIDUE           4 A     B49     0 ROOT
