@<TRIPOS>MOLECULE
smiles:CC(=O)N(CCc1ccc(OC)cc1)CC(=O)N(C)
39 39 1 0 0
SMALL
NO_CHARGES


@<TRIPOS>ATOM
      1 C1          3.7772    2.2741   -0.4415 C.3       1 B5E    0.0000
      2 C2          2.4103    1.9019    0.0725 C.2       1 B5E    0.0000
      3 O1          1.7819    2.6885    0.7488 O.2       1 B5E    0.0000
      4 N1          1.8862    0.6951   -0.2194 N.am      1 B5E    0.0000
      5 C3          0.5125    0.3774    0.1784 C.3       1 B5E    0.0000
      6 C4         -0.4490    0.7810   -0.9412 C.3       1 B5E    0.0000
      7 C5         -1.8621    0.4542   -0.5319 C.ar      1 B5E    0.0000
      8 C6         -2.6198    1.3934    0.1430 C.ar      1 B5E    0.0000
      9 C7         -3.9153    1.0961    0.5196 C.ar      1 B5E    0.0000
     10 C8         -4.4559   -0.1458    0.2197 C.ar      1 B5E    0.0000
     11 O2         -5.7302   -0.4405    0.5888 O.3       1 B5E    0.0000
     12 C9         -5.9912   -1.7733    0.1443 C.3       1 B5E    0.0000
     13 C10        -3.6937   -1.0863   -0.4580 C.ar      1 B5E    0.0000
     14 C11        -2.4005   -0.7822   -0.8370 C.ar      1 B5E    0.0000
     15 C12         2.6902   -0.2991   -0.9345 C.3       1 B5E    0.0000
     16 C13         3.5338   -1.0660    0.0510 C.2       1 B5E    0.0000
     17 O3          3.4697   -0.8076    1.2342 O.2       1 B5E    0.0000
     18 N2          4.3594   -2.0391   -0.3825 N.am      1 B5E    0.0000
     19 C14         5.1795   -2.7846    0.5755 C.3       1 B5E    0.0000
     20 H1          4.5371    1.9069    0.2483 H         1 B5E    0.0000
     21 H2          3.9306    1.8261   -1.4232 H         1 B5E    0.0000
     22 H3          3.8525    3.3586   -0.5212 H         1 B5E    0.0000
     23 H4          0.4261   -0.6934    0.3631 H         1 B5E    0.0000
     24 H5          0.2618    0.9243    1.0874 H         1 B5E    0.0000
     25 H6         -0.3626    1.8518   -1.1259 H         1 B5E    0.0000
     26 H7         -0.1983    0.2341   -1.8501 H         1 B5E    0.0000
     27 H8         -2.1985    2.3601    0.3762 H         1 B5E    0.0000
     28 H9         -4.5065    1.8298    1.0474 H         1 B5E    0.0000
     29 H10        -7.0075   -2.0556    0.4193 H         1 B5E    0.0000
     30 H11        -5.8808   -1.8233   -0.9389 H         1 B5E    0.0000
     31 H12        -5.2845   -2.4577    0.6135 H         1 B5E    0.0000
     32 H13        -4.1122   -2.0539   -0.6922 H         1 B5E    0.0000
     33 H14        -1.8068   -1.5139   -1.3649 H         1 B5E    0.0000
     34 H15         2.0307   -0.9883   -1.4620 H         1 B5E    0.0000
     35 H16         3.3376    0.2051   -1.6520 H         1 B5E    0.0000
     36 H17         4.4106   -2.2458   -1.3289 H         1 B5E    0.0000
     37 H18         5.7777   -3.5243    0.0434 H         1 B5E    0.0000
     38 H19         5.8389   -2.0954    1.1030 H         1 B5E    0.0000
     39 H20         4.5321   -3.2889    1.2929 H         1 B5E    0.0000
@<TRIPOS>BOND
     1    1    2 1
     2    2    3 2
     3    2    4 am
     4    4    5 1
     5    5    6 1
     6    6    7 1
     7    7    8 ar
     8    8    9 ar
     9    9   10 ar
    10   10   11 1
    11   11   12 1
    12   10   13 ar
    13   13   14 ar
    14    7   14 ar
    15    4   15 1
    16   15   16 1
    17   16   17 2
    18   16   18 am
    19   18   19 1
    20    1   20 1
    21    1   21 1
    22    1   22 1
    23    5   23 1
    24    5   24 1
    25    6   25 1
    26    6   26 1
    27    8   27 1
    28    9   28 1
    29   12   29 1
    30   12   30 1
    31   12   31 1
    32   13   32 1
    33   14   33 1
    34   15   34 1
    35   15   35 1
    36   18   36 1
    37   19   37 1
    38   19   38 1
    39   19   39 1
@<TRIPOS>SUBSTRUCTURE
     1 B5E     1 RESIDUE           4 A     B5E     0 ROOT
