@<TRIPOS>MOLECULE
smiles:CC(=O)N(CCC)CC(=O)N(C)
28 27 1 0 0
SMALL
NO_CHARGES


@<TRIPOS>ATOM
      1 C1          0.0870    2.5132   -0.7061 C.3       1 BCD    0.0000
      2 C2         -0.8084    1.5400    0.0165 C.2       1 BCD    0.0000
      3 O1         -1.6897    1.9503    0.7417 O.2       1 BCD    0.0000
      4 N1         -0.6299    0.2136   -0.1431 N.am      1 BCD    0.0000
      5 C3         -1.5718   -0.7305    0.4633 C.3       1 BCD    0.0000
      6 C4         -2.7053   -1.0237   -0.5216 C.3       1 BCD    0.0000
      7 C5         -3.6889   -2.0097    0.1117 C.3       1 BCD    0.0000
      8 C6          0.5061   -0.2839   -0.9230 C.3       1 BCD    0.0000
      9 C7          1.7222   -0.3743   -0.0376 C.2       1 BCD    0.0000
     10 O2          1.6474   -0.0546    1.1299 O.2       1 BCD    0.0000
     11 N2          2.8929   -0.8105   -0.5432 N.am      1 BCD    0.0000
     12 C8          4.0752   -0.8983    0.3175 C.3       1 BCD    0.0000
     13 H1          0.9894    2.6818   -0.1185 H         1 BCD    0.0000
     14 H2          0.3583    2.1036   -1.6792 H         1 BCD    0.0000
     15 H3         -0.4391    3.4579   -0.8434 H         1 BCD    0.0000
     16 H4         -1.0519   -1.6574    0.7053 H         1 BCD    0.0000
     17 H5         -1.9849   -0.2971    1.3741 H         1 BCD    0.0000
     18 H6         -3.2251   -0.0967   -0.7637 H         1 BCD    0.0000
     19 H7         -2.2921   -1.4570   -1.4325 H         1 BCD    0.0000
     20 H8         -4.4965   -2.2185   -0.5900 H         1 BCD    0.0000
     21 H9         -3.1691   -2.9366    0.3537 H         1 BCD    0.0000
     22 H10        -4.1020   -1.5763    1.0225 H         1 BCD    0.0000
     23 H11         0.2703   -1.2719   -1.3186 H         1 BCD    0.0000
     24 H12         0.7074    0.3992   -1.7482 H         1 BCD    0.0000
     25 H13         2.9528   -1.0662   -1.4770 H         1 BCD    0.0000
     26 H14         4.9203   -1.2686   -0.2628 H         1 BCD    0.0000
     27 H15         4.3109    0.0896    0.7130 H         1 BCD    0.0000
     28 H16         3.8739   -1.5815    1.1426 H         1 BCD    0.0000
@<TRIPOS>BOND
     1    1    2 1
     2    2    3 2
     3    2    4 am
     4    4    5 1
     5    5    6 1
     6    6    7 1
     7    4    8 1
     8    8    9 1
     9    9   10 2
    10    9   11 am
    11   11   12 1
    12    1   13 1
    13    1   14 1
    14    1   15 1
    15    5   16 1
    16    5   17 1
    17    6   18 1
    18    6   19 1
    19    7   20 1
    20    7   21 1
    21    7   22 1
    22    8   23 1
    23    8   24 1
    24   11   25 1
    25   12   26 1
    26   12   27 1
    27   12   28 1
@<TRIPOS>SUBSTRUCTURE
     1 BCD     1 RESIDUE           4 A     BCD     0 ROOT
