@<TRIPOS>MOLECULE
smiles:CC(=O)N(CC1CCCCC1)CC(=O)N(C)
38 38 1 0 0
SMALL
NO_CHARGES


@<TRIPOS>ATOM
      1 C1          1.4598    2.5217   -0.6804 C.3       1 BD6    0.0000
      2 C2          0.5577    1.6883    0.1929 C.2       1 BD6    0.0000
      3 O1         -0.1568    2.2245    1.0131 O.2       1 BD6    0.0000
      4 N1          0.5449    0.3469    0.0623 N.am      1 BD6    0.0000
      5 C3         -0.4157   -0.4542    0.8251 C.3       1 BD6    0.0000
      6 C4         -1.7014   -0.6190    0.0122 C.3       1 BD6    0.0000
      7 C5         -2.6562   -1.5574    0.7529 C.3       1 BD6    0.0000
      8 C6         -3.9420   -1.7223   -0.0599 C.3       1 BD6    0.0000
      9 C7         -4.6083   -0.3572   -0.2428 C.3       1 BD6    0.0000
     10 C8         -3.6534    0.5813   -0.9834 C.3       1 BD6    0.0000
     11 C9         -2.3677    0.7461   -0.1706 C.3       1 BD6    0.0000
     12 C10         1.4916   -0.3101   -0.8423 C.3       1 BD6    0.0000
     13 C11         2.7973   -0.5367   -0.1248 C.2       1 BD6    0.0000
     14 O2          2.9246   -0.1842    1.0286 O.2       1 BD6    0.0000
     15 N2          3.8236   -1.1312   -0.7649 N.am      1 BD6    0.0000
     16 C12         5.0929   -1.3515   -0.0674 C.3       1 BD6    0.0000
     17 H1          2.4481    2.5859   -0.2251 H         1 BD6    0.0000
     18 H2          1.5422    2.0591   -1.6639 H         1 BD6    0.0000
     19 H3          1.0417    3.5230   -0.7837 H         1 BD6    0.0000
     20 H4          0.0121   -1.4353    1.0313 H         1 BD6    0.0000
     21 H5         -0.6422    0.0484    1.7654 H         1 BD6    0.0000
     22 H6         -1.4625   -1.0404   -0.9642 H         1 BD6    0.0000
     23 H7         -2.1816   -2.5300    0.8832 H         1 BD6    0.0000
     24 H8         -2.8952   -1.1360    1.7293 H         1 BD6    0.0000
     25 H9         -3.7030   -2.1437   -1.0363 H         1 BD6    0.0000
     26 H10        -4.6222   -2.3908    0.4678 H         1 BD6    0.0000
     27 H11        -5.5242   -0.4746   -0.8218 H         1 BD6    0.0000
     28 H12        -4.8472    0.0642    0.7337 H         1 BD6    0.0000
     29 H13        -3.4145    0.1598   -1.9599 H         1 BD6    0.0000
     30 H14        -4.1281    1.5538   -1.1137 H         1 BD6    0.0000
     31 H15        -2.6067    1.1675    0.8058 H         1 BD6    0.0000
     32 H16        -1.6875    1.4146   -0.6983 H         1 BD6    0.0000
     33 H17         1.0824   -1.2680   -1.1633 H         1 BD6    0.0000
     34 H18         1.6608    0.3229   -1.7134 H         1 BD6    0.0000
     35 H19         3.7218   -1.4132   -1.6874 H         1 BD6    0.0000
     36 H20         5.7973   -1.8403   -0.7405 H         1 BD6    0.0000
     37 H21         5.5022   -0.3936    0.2535 H         1 BD6    0.0000
     38 H22         4.9238   -1.9845    0.8036 H         1 BD6    0.0000
@<TRIPOS>BOND
     1    1    2 1
     2    2    3 2
     3    2    4 am
     4    4    5 1
     5    5    6 1
     6    6    7 1
     7    7    8 1
     8    8    9 1
     9    9   10 1
    10   10   11 1
    11    6   11 1
    12    4   12 1
    13   12   13 1
    14   13   14 2
    15   13   15 am
    16   15   16 1
    17    1   17 1
    18    1   18 1
    19    1   19 1
    20    5   20 1
    21    5   21 1
    22    6   22 1
    23    7   23 1
    24    7   24 1
    25    8   25 1
    26    8   26 1
    27    9   27 1
    28    9   28 1
    29   10   29 1
    30   10   30 1
    31   11   31 1
    32   11   32 1
    33   12   33 1
    34   12   34 1
    35   15   35 1
    36   16   36 1
    37   16   37 1
    38   16   38 1
@<TRIPOS>SUBSTRUCTURE
     1 BD6     1 RESIDUE           4 A     BD6     0 ROOT
