@<TRIPOS>MOLECULE
smiles:CC(=O)N(C)CC(=O)N(C)
22 21 1 0 0
SMALL
NO_CHARGES


@<TRIPOS>ATOM
      1 C1          3.1312    0.3269   -0.6892 C.3       1 CD6    0.0000
      2 C2          1.8319    0.5404    0.0439 C.2       1 CD6    0.0000
      3 O1          1.4856    1.6617    0.3501 O.2       1 CD6    0.0000
      4 N1          1.0548   -0.5146    0.3591 N.am      1 CD6    0.0000
      5 C3          1.4731   -1.8690   -0.0108 C.3       1 CD6    0.0000
      6 C4         -0.2083   -0.3070    1.0717 C.3       1 CD6    0.0000
      7 C5         -1.3205   -0.1065    0.0747 C.2       1 CD6    0.0000
      8 O2         -1.0816   -0.1343   -1.1140 O.2       1 CD6    0.0000
      9 N2         -2.5806    0.1037    0.5041 N.am      1 CD6    0.0000
     10 C6         -3.6618    0.2986   -0.4651 C.3       1 CD6    0.0000
     11 H1          3.6172    1.2884   -0.8548 H         1 CD6    0.0000
     12 H2          3.7835   -0.3121   -0.0939 H         1 CD6    0.0000
     13 H3          2.9327   -0.1501   -1.6490 H         1 CD6    0.0000
     14 H4          2.4305   -1.8245   -0.5300 H         1 CD6    0.0000
     15 H5          1.5753   -2.4761    0.8886 H         1 CD6    0.0000
     16 H6          0.7246   -2.3141   -0.6664 H         1 CD6    0.0000
     17 H7         -0.4255   -1.1796    1.6878 H         1 CD6    0.0000
     18 H8         -0.1264    0.5750    1.7069 H         1 CD6    0.0000
     19 H9         -2.7717    0.1259    1.4548 H         1 CD6    0.0000
     20 H10        -4.6015    0.4530    0.0651 H         1 CD6    0.0000
     21 H11        -3.4445    1.1711   -1.0812 H         1 CD6    0.0000
     22 H12        -3.7437   -0.5834   -1.1003 H         1 CD6    0.0000
@<TRIPOS>BOND
     1    1    2 1
     2    2    3 2
     3    2    4 am
     4    4    5 1
     5    4    6 1
     6    6    7 1
     7    7    8 2
     8    7    9 am
     9    9   10 1
    10    1   11 1
    11    1   12 1
    12    1   13 1
    13    5   14 1
    14    5   15 1
    15    5   16 1
    16    6   17 1
    17    6   18 1
    18    9   19 1
    19   10   20 1
    20   10   21 1
    21   10   22 1
@<TRIPOS>SUBSTRUCTURE
     1 CD6     1 RESIDUE           4 A     CD6     0 ROOT
