@<TRIPOS>MOLECULE
smiles:CC(=O)N(c1ccccc1)CCC(=O)N(C)
32 32 1 0 0
SMALL
NO_CHARGES


@<TRIPOS>ATOM
      1 C1          0.1522    3.0866   -0.2581 C.3       1 CEA    0.0000
      2 C2         -0.8931    2.0402    0.0309 C.2       1 CEA    0.0000
      3 O1         -1.9514    2.3615    0.5287 O.2       1 CEA    0.0000
      4 N1         -0.6520    0.7474   -0.2640 N.am      1 CEA    0.0000
      5 C3         -1.6698   -0.2030   -0.1274 C.ar      1 CEA    0.0000
      6 C4         -2.9685    0.2032    0.1501 C.ar      1 CEA    0.0000
      7 C5         -3.9709   -0.7373    0.2844 C.ar      1 CEA    0.0000
      8 C6         -3.6825   -2.0823    0.1428 C.ar      1 CEA    0.0000
      9 C7         -2.3903   -2.4901   -0.1332 C.ar      1 CEA    0.0000
     10 C8         -1.3846   -1.5541   -0.2747 C.ar      1 CEA    0.0000
     11 C9          0.6759    0.3371   -0.7274 C.3       1 CEA    0.0000
     12 C10         1.5811    0.0825    0.4794 C.3       1 CEA    0.0000
     13 C11         2.9470   -0.3395    0.0027 C.2       1 CEA    0.0000
     14 O2          3.1741   -0.4279   -1.1854 O.2       1 CEA    0.0000
     15 N2          3.9163   -0.6187    0.8966 N.am      1 CEA    0.0000
     16 C12         5.2441   -1.0289    0.4331 C.3       1 CEA    0.0000
     17 H1          0.7532    3.2561    0.6353 H         1 CEA    0.0000
     18 H2          0.7950    2.7438   -1.0689 H         1 CEA    0.0000
     19 H3         -0.3357    4.0167   -0.5496 H         1 CEA    0.0000
     20 H4         -3.1942    1.2535    0.2612 H         1 CEA    0.0000
     21 H5         -4.9810   -0.4220    0.5006 H         1 CEA    0.0000
     22 H6         -4.4682   -2.8158    0.2482 H         1 CEA    0.0000
     23 H7         -2.1683   -3.5413   -0.2429 H         1 CEA    0.0000
     24 H8         -0.3756   -1.8732   -0.4902 H         1 CEA    0.0000
     25 H9          0.5892   -0.5764   -1.3157 H         1 CEA    0.0000
     26 H10         1.1056    1.1268   -1.3438 H         1 CEA    0.0000
     27 H11         1.6678    0.9960    1.0677 H         1 CEA    0.0000
     28 H12         1.1514   -0.7071    1.0958 H         1 CEA    0.0000
     29 H13         3.7347   -0.5479    1.8468 H         1 CEA    0.0000
     30 H14         5.8890   -1.2103    1.2929 H         1 CEA    0.0000
     31 H15         5.1574   -1.9424   -0.1552 H         1 CEA    0.0000
     32 H16         5.6738   -0.2392   -0.1832 H         1 CEA    0.0000
@<TRIPOS>BOND
     1    1    2 1
     2    2    3 2
     3    2    4 am
     4    4    5 1
     5    5    6 ar
     6    6    7 ar
     7    7    8 ar
     8    8    9 ar
     9    9   10 ar
    10    5   10 ar
    11    4   11 1
    12   11   12 1
    13   12   13 1
    14   13   14 2
    15   13   15 am
    16   15   16 1
    17    1   17 1
    18    1   18 1
    19    1   19 1
    20    6   20 1
    21    7   21 1
    22    8   22 1
    23    9   23 1
    24   10   24 1
    25   11   25 1
    26   11   26 1
    27   12   27 1
    28   12   28 1
    29   15   29 1
    30   16   30 1
    31   16   31 1
    32   16   32 1
@<TRIPOS>SUBSTRUCTURE
     1 CEA     1 RESIDUE           4 A     CEA     0 ROOT
