@<TRIPOS>MOLECULE
smiles:CC(=O)N(O)CC(=O)N(C)
20 19 1 0 0
SMALL
NO_CHARGES


@<TRIPOS>ATOM
      1 C1          3.0149    0.7148   -0.5308 C.3       1 D44    0.0000
      2 C2          1.6837    0.5885    0.1643 C.2       1 D44    0.0000
      3 O1          1.1602    1.5668    0.6540 O.2       1 D44    0.0000
      4 N1          1.0750   -0.6114    0.2416 N.am      1 D44    0.0000
      5 O2          1.6863   -1.7536   -0.3302 O.3       1 D44    0.0000
      6 C3         -0.2190   -0.7342    0.9173 C.3       1 D44    0.0000
      7 C4         -1.3016   -0.1662    0.0362 C.2       1 D44    0.0000
      8 O3         -1.0200    0.2956   -1.0493 O.2       1 D44    0.0000
      9 N2         -2.5829   -0.1715    0.4544 N.am      1 D44    0.0000
     10 C5         -3.6353    0.3806   -0.4022 C.3       1 D44    0.0000
     11 H1          3.3477    1.7520   -0.4928 H         1 D44    0.0000
     12 H2          3.7470    0.0798   -0.0318 H         1 D44    0.0000
     13 H3          2.9129    0.4038   -1.5705 H         1 D44    0.0000
     14 H4          2.5205   -1.4584   -0.7202 H         1 D44    0.0000
     15 H5         -0.4268   -1.7855    1.1163 H         1 D44    0.0000
     16 H6         -0.1911   -0.1849    1.8584 H         1 D44    0.0000
     17 H7         -2.8081   -0.5408    1.3226 H         1 D44    0.0000
     18 H8         -4.5981    0.2893    0.1006 H         1 D44    0.0000
     19 H9         -3.4276    1.4320   -0.6011 H         1 D44    0.0000
     20 H10        -3.6633   -0.1686   -1.3432 H         1 D44    0.0000
@<TRIPOS>BOND
     1    1    2 1
     2    2    3 2
     3    2    4 am
     4    4    5 1
     5    4    6 1
     6    6    7 1
     7    7    8 2
     8    7    9 am
     9    9   10 1
    10    1   11 1
    11    1   12 1
    12    1   13 1
    13    5   14 1
    14    6   15 1
    15    6   16 1
    16    9   17 1
    17   10   18 1
    18   10   19 1
    19   10   20 1
@<TRIPOS>SUBSTRUCTURE
     1 D44     1 RESIDUE           4 A     D44     0 ROOT
