@<TRIPOS>MOLECULE
smiles:CC(=O)N([C@@H](C)CC)CC(=O)N(C)
31 30 1 0 0
SMALL
NO_CHARGES


@<TRIPOS>ATOM
      1 C1         -0.1564    2.3955   -0.8055 C.3       1 D71    0.0000
      2 C2         -0.9033    1.3320   -0.0427 C.2       1 D71    0.0000
      3 O1         -1.8124    1.6422    0.6977 O.2       1 D71    0.0000
      4 N1         -0.5610    0.0360   -0.1831 N.am      1 D71    0.0000
      5 C3         -1.3612   -1.0072    0.4633 C.3       1 D71    0.0000
      6 H1         -0.9342   -1.9845    0.2382 H         1 D71    0.0000
      7 C4         -1.3595   -0.7864    1.9773 C.3       1 D71    0.0000
      8 C5         -2.7978   -0.9455   -0.0595 C.3       1 D71    0.0000
      9 C6         -2.8131   -1.2892   -1.5503 C.3       1 D71    0.0000
     10 C7          0.6111   -0.3296   -0.9823 C.3       1 D71    0.0000
     11 C8          1.8494   -0.2397   -0.1281 C.2       1 D71    0.0000
     12 O2          1.7614    0.0967    1.0338 O.2       1 D71    0.0000
     13 N2          3.0545   -0.5331   -0.6553 N.am      1 D71    0.0000
     14 C9          4.2583   -0.4456    0.1751 C.3       1 D71    0.0000
     15 H2          0.7347    2.6843   -0.2482 H         1 D71    0.0000
     16 H3          0.1355    2.0058   -1.7808 H         1 D71    0.0000
     17 H4         -0.7990    3.2656   -0.9395 H         1 D71    0.0000
     18 H5         -1.7865    0.1909    2.2025 H         1 D71    0.0000
     19 H6         -1.9548   -1.5626    2.4583 H         1 D71    0.0000
     20 H7         -0.3361   -0.8304    2.3498 H         1 D71    0.0000
     21 H8         -3.4135   -1.6615    0.4848 H         1 D71    0.0000
     22 H9         -3.1945    0.0593    0.0859 H         1 D71    0.0000
     23 H10        -3.8366   -1.2452   -1.9228 H         1 D71    0.0000
     24 H11        -2.1974   -0.5731   -2.0946 H         1 D71    0.0000
     25 H12        -2.4164   -2.2939   -1.6957 H         1 D71    0.0000
     26 H13         0.4965   -1.3494   -1.3499 H         1 D71    0.0000
     27 H14         0.7021    0.3531   -1.8271 H         1 D71    0.0000
     28 H15         3.1249   -0.8021   -1.5846 H         1 D71    0.0000
     29 H16         5.1304   -0.7176   -0.4195 H         1 D71    0.0000
     30 H17         4.3728    0.5741    0.5427 H         1 D71    0.0000
     31 H18         4.1672   -1.1283    1.0199 H         1 D71    0.0000
@<TRIPOS>BOND
     1    1    2 1
     2    2    3 2
     3    2    4 am
     4    4    5 1
     5    5    6 1
     6    5    7 1
     7    5    8 1
     8    8    9 1
     9    4   10 1
    10   10   11 1
    11   11   12 2
    12   11   13 am
    13   13   14 1
    14    1   15 1
    15    1   16 1
    16    1   17 1
    17    7   18 1
    18    7   19 1
    19    7   20 1
    20    8   21 1
    21    8   22 1
    22    9   23 1
    23    9   24 1
    24    9   25 1
    25   10   26 1
    26   10   27 1
    27   13   28 1
    28   14   29 1
    29   14   30 1
    30   14   31 1
@<TRIPOS>SUBSTRUCTURE
     1 D71     1 RESIDUE           4 A     D71     0 ROOT
