@<TRIPOS>MOLECULE
smiles:CC(=O)N(C(C)(C)C)CC(=O)N(C)
31 30 1 0 0
SMALL
NO_CHARGES


@<TRIPOS>ATOM
      1 C1          0.4878    2.6563    0.4127 C.3       1 D7A    0.0000
      2 C2          1.1833    1.3890   -0.0129 C.2       1 D7A    0.0000
      3 O1          2.1853    1.4465   -0.6939 O.2       1 D7A    0.0000
      4 N1          0.6920    0.1916    0.3632 N.am      1 D7A    0.0000
      5 C3          1.4314   -1.0341    0.0518 C.3       1 D7A    0.0000
      6 C4          2.8304   -0.9559    0.6663 C.3       1 D7A    0.0000
      7 C5          0.6871   -2.2395    0.6297 C.3       1 D7A    0.0000
      8 C6          1.5490   -1.1871   -1.4660 C.3       1 D7A    0.0000
      9 C7         -0.5815    0.1159    1.0834 C.3       1 D7A    0.0000
     10 C8         -1.7110   -0.0139    0.0943 C.2       1 D7A    0.0000
     11 O2         -1.4755   -0.0406   -1.0951 O.2       1 D7A    0.0000
     12 N2         -2.9830   -0.1004    0.5315 N.am      1 D7A    0.0000
     13 C9         -4.0810   -0.2267   -0.4300 C.3       1 D7A    0.0000
     14 H1          1.0544    3.5179    0.0596 H         1 D7A    0.0000
     15 H2         -0.5150    2.6812   -0.0138 H         1 D7A    0.0000
     16 H3          0.4209    2.6863    1.5003 H         1 D7A    0.0000
     17 H4          2.7466   -0.8469    1.7476 H         1 D7A    0.0000
     18 H5          3.3805   -1.8680    0.4346 H         1 D7A    0.0000
     19 H6          3.3606   -0.0972    0.2546 H         1 D7A    0.0000
     20 H7         -0.3096   -2.2952    0.1919 H         1 D7A    0.0000
     21 H8          1.2372   -3.1515    0.3980 H         1 D7A    0.0000
     22 H9          0.6033   -2.1305    1.7110 H         1 D7A    0.0000
     23 H10         2.0729   -0.3250   -1.8786 H         1 D7A    0.0000
     24 H11         2.1053   -2.0954   -1.6976 H         1 D7A    0.0000
     25 H12         0.5524   -1.2501   -1.9031 H         1 D7A    0.0000
     26 H13        -0.5747   -0.7516    1.7432 H         1 D7A    0.0000
     27 H14        -0.7188    1.0212    1.6749 H         1 D7A    0.0000
     28 H15        -3.1714   -0.0791    1.4828 H         1 D7A    0.0000
     29 H16        -5.0286   -0.2830    0.1058 H         1 D7A    0.0000
     30 H17        -4.0878    0.6409   -1.0898 H         1 D7A    0.0000
     31 H18        -3.9438   -1.1319   -1.0215 H         1 D7A    0.0000
@<TRIPOS>BOND
     1    1    2 1
     2    2    3 2
     3    2    4 am
     4    4    5 1
     5    5    6 1
     6    5    7 1
     7    5    8 1
     8    4    9 1
     9    9   10 1
    10   10   11 2
    11   10   12 am
    12   12   13 1
    13    1   14 1
    14    1   15 1
    15    1   16 1
    16    6   17 1
    17    6   18 1
    18    6   19 1
    19    7   20 1
    20    7   21 1
    21    7   22 1
    22    8   23 1
    23    8   24 1
    24    8   25 1
    25    9   26 1
    26    9   27 1
    27   12   28 1
    28   13   29 1
    29   13   30 1
    30   13   31 1
@<TRIPOS>SUBSTRUCTURE
     1 D7A     1 RESIDUE           4 A     D7A     0 ROOT
