@<TRIPOS>MOLECULE
smiles:CC(=O)N(CCO(c1nc(ccc1)c2ncccc2))CC(=O)N(C)
44 45 1 0 0
SMALL
NO_CHARGES


@<TRIPOS>ATOM
      1 C1          3.4328    1.8068   -2.1009 C.3       1 D7E    0.0000
      2 C2          2.6532    1.8615   -0.8124 C.2       1 D7E    0.0000
      3 O1          2.0806    2.8819   -0.4929 O.2       1 D7E    0.0000
      4 N1          2.5923    0.7767   -0.0150 N.am      1 D7E    0.0000
      5 C3          1.7395    0.7901    1.1762 C.3       1 D7E    0.0000
      6 C4          0.3435    0.2824    0.8098 C.3       1 D7E    0.0000
      7 O2          0.4233   -1.0894    0.4174 O.3       1 D7E    0.0000
      8 C5         -0.8374   -1.4821    0.1059 C.ar      1 D7E    0.0000
      9 N2         -1.8334   -0.6199    0.2058 N.ar      1 D7E    0.0000
     10 C6         -3.0812   -0.9630   -0.0895 C.ar      1 D7E    0.0000
     11 C7         -3.3793   -2.2536   -0.5166 C.ar      1 D7E    0.0000
     12 C8         -2.3557   -3.1810   -0.6314 C.ar      1 D7E    0.0000
     13 C9         -1.0654   -2.7854   -0.3201 C.ar      1 D7E    0.0000
     14 C10        -4.1684    0.0386    0.0373 C.ar      1 D7E    0.0000
     15 N3         -5.4158   -0.3037   -0.2577 N.ar      1 D7E    0.0000
     16 C11        -6.4093    0.5551   -0.1585 C.ar      1 D7E    0.0000
     17 C12        -6.1856    1.8548    0.2597 C.ar      1 D7E    0.0000
     18 C13        -4.8960    2.2543    0.5782 C.ar      1 D7E    0.0000
     19 C14        -3.8718    1.3285    0.4705 C.ar      1 D7E    0.0000
     20 C15         3.3787   -0.4160   -0.3394 C.3       1 D7E    0.0000
     21 C16         4.7732   -0.2633    0.2114 C.2       1 D7E    0.0000
     22 O3          5.0798    0.7427    0.8154 O.2       1 D7E    0.0000
     23 N4          5.6795   -1.2447    0.0327 N.am      1 D7E    0.0000
     24 C17         7.0350   -1.0963    0.5681 C.3       1 D7E    0.0000
     25 H1          4.4794    2.0376   -1.9024 H         1 D7E    0.0000
     26 H2          3.3560    0.8076   -2.5298 H         1 D7E    0.0000
     27 H3          3.0267    2.5355   -2.8025 H         1 D7E    0.0000
     28 H4          2.1722    0.1440    1.9401 H         1 D7E    0.0000
     29 H5          1.6670    1.8078    1.5596 H         1 D7E    0.0000
     30 H6         -0.3152    0.3756    1.6732 H         1 D7E    0.0000
     31 H7         -0.0532    0.8738   -0.0154 H         1 D7E    0.0000
     32 H8         -4.3959   -2.5292   -0.7553 H         1 D7E    0.0000
     33 H9         -2.5593   -4.1894   -0.9602 H         1 D7E    0.0000
     34 H10        -0.2462   -3.4846   -0.3999 H         1 D7E    0.0000
     35 H11        -7.4121    0.2407   -0.4072 H         1 D7E    0.0000
     36 H12        -7.0071    2.5516    0.3371 H         1 D7E    0.0000
     37 H13        -4.6960    3.2634    0.9070 H         1 D7E    0.0000
     38 H14        -2.8559    1.6055    0.7108 H         1 D7E    0.0000
     39 H15         2.9074   -1.2935    0.1031 H         1 D7E    0.0000
     40 H16         3.4267   -0.5362   -1.4217 H         1 D7E    0.0000
     41 H17         5.4342   -2.0493   -0.4505 H         1 D7E    0.0000
     42 H18         7.6202   -1.9836    0.3267 H         1 D7E    0.0000
     43 H19         7.5064   -0.2187    0.1256 H         1 D7E    0.0000
     44 H20         6.9870   -0.9760    1.6504 H         1 D7E    0.0000
@<TRIPOS>BOND
     1    1    2 1
     2    2    3 2
     3    2    4 am
     4    4    5 1
     5    5    6 1
     6    6    7 1
     7    7    8 1
     8    8    9 ar
     9    9   10 ar
    10   10   11 ar
    11   11   12 ar
    12   12   13 ar
    13    8   13 ar
    14   10   14 1
    15   14   15 ar
    16   15   16 ar
    17   16   17 ar
    18   17   18 ar
    19   18   19 ar
    20   14   19 ar
    21    4   20 1
    22   20   21 1
    23   21   22 2
    24   21   23 am
    25   23   24 1
    26    1   25 1
    27    1   26 1
    28    1   27 1
    29    5   28 1
    30    5   29 1
    31    6   30 1
    32    6   31 1
    33   11   32 1
    34   12   33 1
    35   13   34 1
    36   16   35 1
    37   17   36 1
    38   18   37 1
    39   19   38 1
    40   20   39 1
    41   20   40 1
    42   23   41 1
    43   24   42 1
    44   24   43 1
    45   24   44 1
@<TRIPOS>SUBSTRUCTURE
     1 D7E     1 RESIDUE           4 A     D7E     0 ROOT
