@<TRIPOS>MOLECULE
smiles:CC(=O)N([C@@H](C)c1cccc2ccccc21)CC(=O)N(C)
41 42 1 0 0
SMALL
NO_CHARGES


@<TRIPOS>ATOM
      1 C1          1.6640    0.7822   -2.5151 C.3       1 D93    0.0000
      2 C2          0.9584    1.1137   -1.2255 C.2       1 D93    0.0000
      3 O1          0.3325    2.1477   -1.1251 O.2       1 D93    0.0000
      4 N1          1.0229    0.2612   -0.1836 N.am      1 D93    0.0000
      5 C3          0.2361    0.5203    1.0247 C.3       1 D93    0.0000
      6 H1          0.3413   -0.3179    1.7135 H         1 D93    0.0000
      7 C4          0.7399    1.7990    1.6969 C.3       1 D93    0.0000
      8 C5         -1.2150    0.6862    0.6533 C.ar      1 D93    0.0000
      9 C6         -1.7771    1.9257    0.6270 C.ar      1 D93    0.0000
     10 C7         -3.1169    2.0987    0.2860 C.ar      1 D93    0.0000
     11 C8         -3.9027    1.0333   -0.0311 C.ar      1 D93    0.0000
     12 C9         -3.3576   -0.2615   -0.0153 C.ar      1 D93    0.0000
     13 C10        -4.1376   -1.3858   -0.3362 C.ar      1 D93    0.0000
     14 C11        -3.5755   -2.6250   -0.3100 C.ar      1 D93    0.0000
     15 C12        -2.2353   -2.7980    0.0314 C.ar      1 D93    0.0000
     16 C13        -1.4497   -1.7330    0.3484 C.ar      1 D93    0.0000
     17 C14        -1.9933   -0.4371    0.3267 C.ar      1 D93    0.0000
     18 C15         1.8797   -0.9247   -0.2594 C.3       1 D93    0.0000
     19 C16         3.2865   -0.5539    0.1337 C.2       1 D93    0.0000
     20 O2          3.5476    0.5885    0.4464 O.2       1 D93    0.0000
     21 N2          4.2545   -1.4917    0.1377 N.am      1 D93    0.0000
     22 C17         5.6220   -1.1312    0.5199 C.3       1 D93    0.0000
     23 H2          2.6784    1.1802   -2.4870 H         1 D93    0.0000
     24 H3          1.7016   -0.2998   -2.6410 H         1 D93    0.0000
     25 H4          1.1224    1.2266   -3.3502 H         1 D93    0.0000
     26 H5          0.6347    2.6373    1.0081 H         1 D93    0.0000
     27 H6          0.1545    1.9918    2.5959 H         1 D93    0.0000
     28 H7          1.7894    1.6790    1.9655 H         1 D93    0.0000
     29 H8         -1.1756    2.7879    0.8744 H         1 D93    0.0000
     30 H9         -3.5385    3.0930    0.2735 H         1 D93    0.0000
     31 H10        -4.9397    1.1826   -0.2931 H         1 D93    0.0000
     32 H11        -5.1776   -1.2671   -0.6020 H         1 D93    0.0000
     33 H12        -4.1771   -3.4872   -0.5570 H         1 D93    0.0000
     34 H13        -1.8140   -3.7924    0.0449 H         1 D93    0.0000
     35 H14        -0.4130   -1.8824    0.6117 H         1 D93    0.0000
     36 H15         1.5025   -1.6896    0.4193 H         1 D93    0.0000
     37 H16         1.8771   -1.3103   -1.2790 H         1 D93    0.0000
     38 H17         4.0456   -2.4053   -0.1124 H         1 D93    0.0000
     39 H18         6.2596   -2.0135    0.4634 H         1 D93    0.0000
     40 H19         5.9993   -0.3663   -0.1589 H         1 D93    0.0000
     41 H20         5.6247   -0.7456    1.5394 H         1 D93    0.0000
@<TRIPOS>BOND
     1    1    2 1
     2    2    3 2
     3    2    4 am
     4    4    5 1
     5    5    6 1
     6    5    7 1
     7    5    8 1
     8    8    9 ar
     9    9   10 ar
    10   10   11 ar
    11   11   12 ar
    12   12   13 ar
    13   13   14 ar
    14   14   15 ar
    15   15   16 ar
    16   16   17 ar
    17   12   17 ar
    18    8   17 ar
    19    4   18 1
    20   18   19 1
    21   19   20 2
    22   19   21 am
    23   21   22 1
    24    1   23 1
    25    1   24 1
    26    1   25 1
    27    7   26 1
    28    7   27 1
    29    7   28 1
    30    9   29 1
    31   10   30 1
    32   11   31 1
    33   13   32 1
    34   14   33 1
    35   15   34 1
    36   16   35 1
    37   18   36 1
    38   18   37 1
    39   21   38 1
    40   22   39 1
    41   22   40 1
    42   22   41 1
@<TRIPOS>SUBSTRUCTURE
     1 D93     1 RESIDUE           4 A     D93     0 ROOT
