@<TRIPOS>MOLECULE
smiles:CC(=O)N(CC[N+](CC)(CC)CC)CC(=O)N(C)
46 45 1 0 0
SMALL
NO_CHARGES


@<TRIPOS>ATOM
      1 C1          2.4962    2.4897   -1.0631 C.3       1 DD4    0.0000
      2 C2          1.3187    1.9731   -0.2771 C.2       1 DD4    0.0000
      3 O1          0.6160    2.7451    0.3403 O.2       1 DD4    0.0000
      4 N1          1.0466    0.6532   -0.2602 N.am      1 DD4    0.0000
      5 C3         -0.1635    0.1632    0.4045 C.3       1 DD4    0.0000
      6 C4         -1.3179    0.1281   -0.5990 C.3       1 DD4    0.0000
      7 N2         -2.5313   -0.3633    0.0674 N.4       1 DD4    0.0000
      8 C5         -3.6397   -0.3970   -0.8961 C.3       1 DD4    0.0000
      9 C6         -4.9035   -0.9088   -0.2019 C.3       1 DD4    0.0000
     10 C7         -2.2915   -1.7168    0.5856 C.3       1 DD4    0.0000
     11 C8         -1.9323   -2.6499   -0.5725 C.3       1 DD4    0.0000
     12 C9         -2.8762    0.5327    1.1793 C.3       1 DD4    0.0000
     13 C10        -3.1260    1.9424    0.6397 C.3       1 DD4    0.0000
     14 C11         1.9609   -0.2915   -0.9066 C.3       1 DD4    0.0000
     15 C12         3.0665   -0.6554    0.0507 C.2       1 DD4    0.0000
     16 O2          3.0885   -0.1731    1.1632 O.2       1 DD4    0.0000
     17 N3          4.0307   -1.5169   -0.3296 N.am      1 DD4    0.0000
     18 C13         5.1055   -1.8706    0.6009 C.3       1 DD4    0.0000
     19 H1          3.3959    2.4306   -0.4507 H         1 DD4    0.0000
     20 H2          2.6272    1.8853   -1.9606 H         1 DD4    0.0000
     21 H3          2.3170    3.5269   -1.3464 H         1 DD4    0.0000
     22 H4          0.0144   -0.8411    0.7889 H         1 DD4    0.0000
     23 H5         -0.4194    0.8281    1.2295 H         1 DD4    0.0000
     24 H6         -1.4959    1.1324   -0.9835 H         1 DD4    0.0000
     25 H7         -1.0620   -0.5368   -1.4241 H         1 DD4    0.0000
     26 H8         -3.8176    0.6073   -1.2805 H         1 DD4    0.0000
     27 H9         -3.3838   -1.0619   -1.7211 H         1 DD4    0.0000
     28 H10        -5.7259   -0.9338   -0.9168 H         1 DD4    0.0000
     29 H11        -4.7255   -1.9131    0.1826 H         1 DD4    0.0000
     30 H12        -5.1594   -0.2439    0.6231 H         1 DD4    0.0000
     31 H13        -1.4691   -1.6917    1.3005 H         1 DD4    0.0000
     32 H14        -3.1918   -2.0813    1.0801 H         1 DD4    0.0000
     33 H15        -1.7543   -3.6542   -0.1880 H         1 DD4    0.0000
     34 H16        -2.7547   -2.6750   -1.2874 H         1 DD4    0.0000
     35 H17        -1.0319   -2.2854   -1.0670 H         1 DD4    0.0000
     36 H18        -3.7765    0.1682    1.6739 H         1 DD4    0.0000
     37 H19        -2.0538    0.5578    1.8942 H         1 DD4    0.0000
     38 H20        -3.3819    2.6072    1.4647 H         1 DD4    0.0000
     39 H21        -2.2256    2.3070    0.1451 H         1 DD4    0.0000
     40 H22        -3.9484    1.9174   -0.0753 H         1 DD4    0.0000
     41 H23         1.4139   -1.1911   -1.1889 H         1 DD4    0.0000
     42 H24         2.3884    0.1684   -1.7975 H         1 DD4    0.0000
     43 H25         4.0131   -1.9026   -1.2194 H         1 DD4    0.0000
     44 H26         5.7857   -2.5735    0.1200 H         1 DD4    0.0000
     45 H27         5.6524   -0.9710    0.8832 H         1 DD4    0.0000
     46 H28         4.6780   -2.3305    1.4919 H         1 DD4    0.0000
@<TRIPOS>BOND
     1    1    2 1
     2    2    3 2
     3    2    4 am
     4    4    5 1
     5    5    6 1
     6    6    7 1
     7    7    8 1
     8    8    9 1
     9    7   10 1
    10   10   11 1
    11    7   12 1
    12   12   13 1
    13    4   14 1
    14   14   15 1
    15   15   16 2
    16   15   17 am
    17   17   18 1
    18    1   19 1
    19    1   20 1
    20    1   21 1
    21    5   22 1
    22    5   23 1
    23    6   24 1
    24    6   25 1
    25    8   26 1
    26    8   27 1
    27    9   28 1
    28    9   29 1
    29    9   30 1
    30   10   31 1
    31   10   32 1
    32   11   33 1
    33   11   34 1
    34   11   35 1
    35   12   36 1
    36   12   37 1
    37   13   38 1
    38   13   39 1
    39   13   40 1
    40   14   41 1
    41   14   42 1
    42   17   43 1
    43   18   44 1
    44   18   45 1
    45   18   46 1
@<TRIPOS>SUBSTRUCTURE
     1 DD4     1 RESIDUE           4 A     DD4     0 ROOT
