@<TRIPOS>MOLECULE
smiles:CC(=O)NCCC(=O)N(C)
22 21 1 0 0
SMALL
NO_CHARGES


@<TRIPOS>ATOM
      1 C1          4.2159   -0.7141    0.0000 C.3       1 DE0    0.0000
      2 C2          2.9247    0.0629    0.0000 C.2       1 DE0    0.0000
      3 O1          2.9467    1.2755    0.0000 O.2       1 DE0    0.0000
      4 N1          1.7455   -0.5897    0.0000 N.am      1 DE0    0.0000
      5 C3          0.4902    0.1657    0.0000 C.3       1 DE0    0.0000
      6 C4         -0.6905   -0.8074    0.0000 C.3       1 DE0    0.0000
      7 C5         -1.9818   -0.0303    0.0000 C.2       1 DE0    0.0000
      8 O2         -1.9598    1.1823    0.0000 O.2       1 DE0    0.0000
      9 N2         -3.1610   -0.6830    0.0000 N.am      1 DE0    0.0000
     10 C6         -4.4162    0.0724    0.0000 C.3       1 DE0    0.0000
     11 H1          5.0571   -0.0209    0.0000 H         1 DE0    0.0000
     12 H2          4.2623   -1.3417    0.8900 H         1 DE0    0.0000
     13 H3          4.2623   -1.3417   -0.8900 H         1 DE0    0.0000
     14 H4          1.7279   -1.5596    0.0000 H         1 DE0    0.0000
     15 H5          0.4438    0.7933    0.8900 H         1 DE0    0.0000
     16 H6          0.4438    0.7933   -0.8900 H         1 DE0    0.0000
     17 H7         -0.6441   -1.4350   -0.8900 H         1 DE0    0.0000
     18 H8         -0.6441   -1.4350    0.8900 H         1 DE0    0.0000
     19 H9         -3.1786   -1.6528    0.0000 H         1 DE0    0.0000
     20 H10        -5.2574   -0.6208    0.0000 H         1 DE0    0.0000
     21 H11        -4.4626    0.7000    0.8900 H         1 DE0    0.0000
     22 H12        -4.4626    0.7000   -0.8900 H         1 DE0    0.0000
@<TRIPOS>BOND
     1    1    2 1
     2    2    3 2
     3    2    4 am
     4    4    5 1
     5    5    6 1
     6    6    7 1
     7    7    8 2
     8    7    9 am
     9    9   10 1
    10    1   11 1
    11    1   12 1
    12    1   13 1
    13    4   14 1
    14    5   15 1
    15    5   16 1
    16    6   17 1
    17    6   18 1
    18    9   19 1
    19   10   20 1
    20   10   21 1
    21   10   22 1
@<TRIPOS>SUBSTRUCTURE
     1 DE0     1 RESIDUE           4 A     DE0     0 ROOT
