@<TRIPOS>MOLECULE
smiles:CC(=O)N(c1ccc(OC)cc1)CC(=O)N(C)
33 33 1 0 0
SMALL
NO_CHARGES


@<TRIPOS>ATOM
      1 C1          2.7165    2.4391   -0.3735 C.3       1 DEC    0.0000
      2 C2          1.3066    2.0233   -0.0415 C.2       1 DEC    0.0000
      3 O1          0.5876    2.7681    0.5906 O.2       1 DEC    0.0000
      4 N1          0.8446    0.8239   -0.4470 N.am      1 DEC    0.0000
      5 C3         -0.5046    0.4941   -0.2626 C.ar      1 DEC    0.0000
      6 C4         -1.4004    1.4570    0.1829 C.ar      1 DEC    0.0000
      7 C5         -2.7300    1.1314    0.3640 C.ar      1 DEC    0.0000
      8 C6         -3.1708   -0.1575    0.1014 C.ar      1 DEC    0.0000
      9 O2         -4.4802   -0.4774    0.2799 O.3       1 DEC    0.0000
     10 C7         -4.6197   -1.8563   -0.0685 C.3       1 DEC    0.0000
     11 C8         -2.2764   -1.1199   -0.3437 C.ar      1 DEC    0.0000
     12 C9         -0.9476   -0.7942   -0.5307 C.ar      1 DEC    0.0000
     13 C10         1.7530   -0.1349   -1.0806 C.3       1 DEC    0.0000
     14 C11         2.4676   -0.9282   -0.0170 C.2       1 DEC    0.0000
     15 O3          2.2404   -0.7136    1.1549 O.2       1 DEC    0.0000
     16 N2          3.3592   -1.8760   -0.3680 N.am      1 DEC    0.0000
     17 C12         4.0539   -2.6471    0.6659 C.3       1 DEC    0.0000
     18 H1          3.3752    2.1861    0.4573 H         1 DEC    0.0000
     19 H2          3.0474    1.9172   -1.2714 H         1 DEC    0.0000
     20 H3          2.7469    3.5149   -0.5465 H         1 DEC    0.0000
     21 H4         -1.0572    2.4602    0.3881 H         1 DEC    0.0000
     22 H5         -3.4269    1.8802    0.7105 H         1 DEC    0.0000
     23 H6         -5.6587   -2.1601    0.0595 H         1 DEC    0.0000
     24 H7         -4.3245   -2.0001   -1.1078 H         1 DEC    0.0000
     25 H8         -3.9823   -2.4604    0.5772 H         1 DEC    0.0000
     26 H9         -2.6202   -2.1232   -0.5476 H         1 DEC    0.0000
     27 H10        -0.2514   -1.5435   -0.8772 H         1 DEC    0.0000
     28 H11         1.1816   -0.8115   -1.7161 H         1 DEC    0.0000
     29 H12         2.4835    0.4019   -1.6858 H         1 DEC    0.0000
     30 H13         3.5409   -2.0475   -1.3053 H         1 DEC    0.0000
     31 H14         4.7298   -3.3605    0.1945 H         1 DEC    0.0000
     32 H15         4.6253   -1.9705    1.3014 H         1 DEC    0.0000
     33 H16         3.3234   -3.1839    1.2711 H         1 DEC    0.0000
@<TRIPOS>BOND
     1    1    2 1
     2    2    3 2
     3    2    4 am
     4    4    5 1
     5    5    6 ar
     6    6    7 ar
     7    7    8 ar
     8    8    9 1
     9    9   10 1
    10    8   11 ar
    11   11   12 ar
    12    5   12 ar
    13    4   13 1
    14   13   14 1
    15   14   15 2
    16   14   16 am
    17   16   17 1
    18    1   18 1
    19    1   19 1
    20    1   20 1
    21    6   21 1
    22    7   22 1
    23   10   23 1
    24   10   24 1
    25   10   25 1
    26   11   26 1
    27   12   27 1
    28   13   28 1
    29   13   29 1
    30   16   30 1
    31   17   31 1
    32   17   32 1
    33   17   33 1
@<TRIPOS>SUBSTRUCTURE
     1 DEC     1 RESIDUE           4 A     DEC     0 ROOT
