@<TRIPOS>MOLECULE
smiles:CC(=O)NCC(=O)N(C)
19 18 1 0 0
SMALL
NO_CHARGES


@<TRIPOS>ATOM
      1 C1          3.4204   -0.9503    0.0000 C.3       1 E27    0.0000
      2 C2          2.3114    0.0700    0.0000 C.2       1 E27    0.0000
      3 O1          2.5762    1.2535    0.0000 O.2       1 E27    0.0000
      4 N1          1.0252   -0.3327    0.0000 N.am      1 E27    0.0000
      5 C3         -0.0530    0.6592    0.0000 C.3       1 E27    0.0000
      6 C4         -1.3846   -0.0464    0.0000 C.2       1 E27    0.0000
      7 O2         -1.4287   -1.2584    0.0000 O.2       1 E27    0.0000
      8 N2         -2.5265    0.6695    0.0000 N.am      1 E27    0.0000
      9 C5         -3.8210   -0.0163    0.0000 C.3       1 E27    0.0000
     10 H1          4.3836   -0.4400    0.0000 H         1 E27    0.0000
     11 H2          3.3399   -1.5745    0.8900 H         1 E27    0.0000
     12 H3          3.3399   -1.5745   -0.8900 H         1 E27    0.0000
     13 H4          0.8134   -1.2793    0.0000 H         1 E27    0.0000
     14 H5          0.0275    1.2833    0.8900 H         1 E27    0.0000
     15 H6          0.0275    1.2833   -0.8900 H         1 E27    0.0000
     16 H7         -2.4912    1.6389    0.0000 H         1 E27    0.0000
     17 H8         -4.6232    0.7217    0.0000 H         1 E27    0.0000
     18 H9         -3.9015   -0.6405   -0.8900 H         1 E27    0.0000
     19 H10        -3.9015   -0.6405    0.8900 H         1 E27    0.0000
@<TRIPOS>BOND
     1    1    2 1
     2    2    3 2
     3    2    4 am
     4    4    5 1
     5    5    6 1
     6    6    7 2
     7    6    8 am
     8    8    9 1
     9    1   10 1
    10    1   11 1
    11    1   12 1
    12    4   13 1
    13    5   14 1
    14    5   15 1
    15    8   16 1
    16    9   17 1
    17    9   18 1
    18    9   19 1
@<TRIPOS>SUBSTRUCTURE
     1 E27     1 RESIDUE           4 A     E27     0 ROOT
