@<TRIPOS>MOLECULE
smiles:CC(=O)N(CC[N+](C(C)C)C(C)C)CC(=O)N(C)
45 44 1 0 0
SMALL
NO_CHARGES


@<TRIPOS>ATOM
      1 C1          2.5895    2.5965   -0.7487 C.3       1 E35    0.0000
      2 C2          1.3962    2.0078   -0.0413 C.2       1 E35    0.0000
      3 O1          0.6946    2.7123    0.6532 O.2       1 E35    0.0000
      4 N1          1.1087    0.6984   -0.1804 N.am      1 E35    0.0000
      5 C3         -0.1157    0.1507    0.4088 C.3       1 E35    0.0000
      6 C4         -1.2570    0.2466   -0.6057 C.3       1 E35    0.0000
      7 N2         -2.4659   -0.3563   -0.0390 N.4       1 E35    0.0000
      8 C5         -2.4766   -1.7763    0.3212 C.3       1 E35    0.0000
      9 C6         -3.8488   -2.1488    0.8861 C.3       1 E35    0.0000
     10 C7         -2.1909   -2.6201   -0.9227 C.3       1 E35    0.0000
     11 C8         -3.6643    0.4608    0.1674 C.3       1 E35    0.0000
     12 C9         -3.3165    1.6628    1.0479 C.3       1 E35    0.0000
     13 C10        -4.1853    0.9526   -1.1845 C.3       1 E35    0.0000
     14 C11         2.0206   -0.1771   -0.9208 C.3       1 E35    0.0000
     15 C12         3.1154   -0.6545   -0.0018 C.2       1 E35    0.0000
     16 O2          3.1323   -0.2985    1.1574 O.2       1 E35    0.0000
     17 N3          4.0757   -1.4772   -0.4682 N.am      1 E35    0.0000
     18 C13         5.1400   -1.9413    0.4252 C.3       1 E35    0.0000
     19 H1          3.4799    2.4591   -0.1352 H         1 E35    0.0000
     20 H2          2.7276    2.0955   -1.7069 H         1 E35    0.0000
     21 H3          2.4242    3.6609   -0.9158 H         1 E35    0.0000
     22 H4          0.0456   -0.8935    0.6766 H         1 E35    0.0000
     23 H5         -0.3748    0.7191    1.3020 H         1 E35    0.0000
     24 H6         -1.4484    1.2940   -0.8392 H         1 E35    0.0000
     25 H7         -0.9791   -0.2838   -1.5165 H         1 E35    0.0000
     26 H8         -1.7105   -1.9662    1.0729 H         1 E35    0.0000
     27 H9         -4.6149   -1.9589    0.1343 H         1 E35    0.0000
     28 H10        -3.8568   -3.2053    1.1541 H         1 E35    0.0000
     29 H11        -4.0524   -1.5477    1.7722 H         1 E35    0.0000
     30 H12        -2.9570   -2.4302   -1.6744 H         1 E35    0.0000
     31 H13        -1.2133   -2.3547   -1.3251 H         1 E35    0.0000
     32 H14        -2.1988   -3.6766   -0.6547 H         1 E35    0.0000
     33 H15        -4.4324   -0.1379    0.6568 H         1 E35    0.0000
     34 H16        -2.6217    2.3134    0.5167 H         1 E35    0.0000
     35 H17        -4.2256    2.2165    1.2825 H         1 E35    0.0000
     36 H18        -2.8544    1.3148    1.9717 H         1 E35    0.0000
     37 H19        -4.5002    0.0991   -1.7848 H         1 E35    0.0000
     38 H20        -5.0337    1.6185   -1.0264 H         1 E35    0.0000
     39 H21        -3.3932    1.4907   -1.7052 H         1 E35    0.0000
     40 H22         1.4687   -1.0350   -1.3048 H         1 E35    0.0000
     41 H23         2.4590    0.3747   -1.7523 H         1 E35    0.0000
     42 H24         4.0622   -1.7619   -1.3953 H         1 E35    0.0000
     43 H25         5.8185   -2.5927   -0.1257 H         1 E35    0.0000
     44 H26         5.6919   -1.0833    0.8092 H         1 E35    0.0000
     45 H27         4.7016   -2.4931    1.2567 H         1 E35    0.0000
@<TRIPOS>BOND
     1    1    2 1
     2    2    3 2
     3    2    4 am
     4    4    5 1
     5    5    6 1
     6    6    7 1
     7    7    8 1
     8    8    9 1
     9    8   10 1
    10    7   11 1
    11   11   12 1
    12   11   13 1
    13    4   14 1
    14   14   15 1
    15   15   16 2
    16   15   17 am
    17   17   18 1
    18    1   19 1
    19    1   20 1
    20    1   21 1
    21    5   22 1
    22    5   23 1
    23    6   24 1
    24    6   25 1
    25    8   26 1
    26    9   27 1
    27    9   28 1
    28    9   29 1
    29   10   30 1
    30   10   31 1
    31   10   32 1
    32   11   33 1
    33   12   34 1
    34   12   35 1
    35   12   36 1
    36   13   37 1
    37   13   38 1
    38   13   39 1
    39   14   40 1
    40   14   41 1
    41   17   42 1
    42   18   43 1
    43   18   44 1
    44   18   45 1
@<TRIPOS>SUBSTRUCTURE
     1 E35     1 RESIDUE           4 A     E35     0 ROOT
