@<TRIPOS>MOLECULE
smiles:CC(=O)N([C@@H](CCCC)c1cccc2ccccc21)CCC(=O)N(C)
53 54 1 0 0
SMALL
NO_CHARGES


@<TRIPOS>ATOM
      1 C1          0.8225   -0.0444   -3.0443 C.3       1 EC1    0.0000
      2 C2          0.1601    0.6382   -1.8754 C.2       1 EC1    0.0000
      3 O1         -0.5225    1.6242   -2.0562 O.2       1 EC1    0.0000
      4 N1          0.3262    0.1528   -0.6291 N.am      1 EC1    0.0000
      5 C3         -0.3831    0.7663    0.4965 C.3       1 EC1    0.0000
      6 H1         -0.1274    0.2411    1.4168 H         1 EC1    0.0000
      7 C4          0.0260    2.2356    0.6173 C.3       1 EC1    0.0000
      8 C5          1.5103    2.3237    0.9777 C.3       1 EC1    0.0000
      9 C6          1.9195    3.7931    1.0985 C.3       1 EC1    0.0000
     10 C7          3.4038    3.8812    1.4590 C.3       1 EC1    0.0000
     11 C8         -1.8691    0.6761    0.2630 C.ar      1 EC1    0.0000
     12 C9         -2.5650    1.7719   -0.1469 C.ar      1 EC1    0.0000
     13 C10        -3.9392    1.7078   -0.3679 C.ar      1 EC1    0.0000
     14 C11        -4.6258    0.5473   -0.1808 C.ar      1 EC1    0.0000
     15 C12        -3.9415   -0.6048    0.2415 C.ar      1 EC1    0.0000
     16 C13        -4.6162   -1.8207    0.4460 C.ar      1 EC1    0.0000
     17 C14        -3.9204   -2.9162    0.8557 C.ar      1 EC1    0.0000
     18 C15        -2.5458   -2.8519    1.0770 C.ar      1 EC1    0.0000
     19 C16        -1.8593   -1.6919    0.8899 C.ar      1 EC1    0.0000
     20 C17        -2.5427   -0.5408    0.4616 C.ar      1 EC1    0.0000
     21 C18         1.2160   -0.9882   -0.3999 C.3       1 EC1    0.0000
     22 C19         2.6558   -0.4913   -0.2557 C.3       1 EC1    0.0000
     23 C20         3.5711   -1.6650   -0.0199 C.2       1 EC1    0.0000
     24 O2          3.1166   -2.7884    0.0281 O.2       1 EC1    0.0000
     25 N2          4.8948   -1.4663    0.1376 N.am      1 EC1    0.0000
     26 C21         5.7846   -2.6074    0.3668 C.3       1 EC1    0.0000
     27 H2          1.7835    0.4294   -3.2448 H         1 EC1    0.0000
     28 H3          0.9786   -1.0973   -2.8095 H         1 EC1    0.0000
     29 H4          0.1847    0.0410   -3.9240 H         1 EC1    0.0000
     30 H5         -0.1477    2.7404   -0.3330 H         1 EC1    0.0000
     31 H6         -0.5663    2.7147    1.3968 H         1 EC1    0.0000
     32 H7          1.6841    1.8189    1.9280 H         1 EC1    0.0000
     33 H8          2.1026    1.8446    0.1982 H         1 EC1    0.0000
     34 H9          1.7457    4.2979    0.1482 H         1 EC1    0.0000
     35 H10         1.3272    4.2722    1.8781 H         1 EC1    0.0000
     36 H11         3.6952    4.9280    1.5450 H         1 EC1    0.0000
     37 H12         3.5775    3.3764    2.4093 H         1 EC1    0.0000
     38 H13         3.9961    3.4021    0.6794 H         1 EC1    0.0000
     39 H14        -2.0442    2.7051   -0.3028 H         1 EC1    0.0000
     40 H15        -4.4676    2.5921   -0.6922 H         1 EC1    0.0000
     41 H16        -5.6910    0.5126   -0.3556 H         1 EC1    0.0000
     42 H17        -5.6813   -1.8853    0.2791 H         1 EC1    0.0000
     43 H18        -4.4412   -3.8493    1.0120 H         1 EC1    0.0000
     44 H19        -2.0175   -3.7360    1.4023 H         1 EC1    0.0000
     45 H20        -0.7943   -1.6568    1.0661 H         1 EC1    0.0000
     46 H21         0.9169   -1.5048    0.5122 H         1 EC1    0.0000
     47 H22         1.1514   -1.6747   -1.2441 H         1 EC1    0.0000
     48 H23         2.9549    0.0253   -1.1677 H         1 EC1    0.0000
     49 H24         2.7204    0.1952    0.5886 H         1 EC1    0.0000
     50 H25         5.2584   -0.5679    0.0993 H         1 EC1    0.0000
     51 H26         6.8104   -2.2533    0.4695 H         1 EC1    0.0000
     52 H27         5.4855   -3.1239    1.2788 H         1 EC1    0.0000
     53 H28         5.7200   -3.2938   -0.4774 H         1 EC1    0.0000
@<TRIPOS>BOND
     1    1    2 1
     2    2    3 2
     3    2    4 am
     4    4    5 1
     5    5    6 1
     6    5    7 1
     7    7    8 1
     8    8    9 1
     9    9   10 1
    10    5   11 1
    11   11   12 ar
    12   12   13 ar
    13   13   14 ar
    14   14   15 ar
    15   15   16 ar
    16   16   17 ar
    17   17   18 ar
    18   18   19 ar
    19   19   20 ar
    20   15   20 ar
    21   11   20 ar
    22    4   21 1
    23   21   22 1
    24   22   23 1
    25   23   24 2
    26   23   25 am
    27   25   26 1
    28    1   27 1
    29    1   28 1
    30    1   29 1
    31    7   30 1
    32    7   31 1
    33    8   32 1
    34    8   33 1
    35    9   34 1
    36    9   35 1
    37   10   36 1
    38   10   37 1
    39   10   38 1
    40   12   39 1
    41   13   40 1
    42   14   41 1
    43   16   42 1
    44   17   43 1
    45   18   44 1
    46   19   45 1
    47   21   46 1
    48   21   47 1
    49   22   48 1
    50   22   49 1
    51   25   50 1
    52   26   51 1
    53   26   52 1
    54   26   53 1
@<TRIPOS>SUBSTRUCTURE
     1 EC1     1 RESIDUE           4 A     EC1     0 ROOT
