@<TRIPOS>MOLECULE
smiles:CC(=O)N(C(C(C)C))CC(=O)N(C)
31 30 1 0 0
SMALL
NO_CHARGES


@<TRIPOS>ATOM
      1 C1          0.2807    2.5028   -0.6427 C.3       1 F42    0.0000
      2 C2         -0.5674    1.5106    0.1106 C.2       1 F42    0.0000
      3 O1         -1.4249    1.9020    0.8738 O.2       1 F42    0.0000
      4 N1         -0.3729    0.1884   -0.0638 N.am      1 F42    0.0000
      5 C3         -1.2731   -0.7749    0.5749 C.3       1 F42    0.0000
      6 C4         -2.4406   -1.0826   -0.3648 C.3       1 F42    0.0000
      7 C5         -3.3131   -2.1799    0.2481 C.3       1 F42    0.0000
      8 C6         -3.2786    0.1813   -0.5680 C.3       1 F42    0.0000
      9 C7          0.7386   -0.2855   -0.8920 C.3       1 F42    0.0000
     10 C8          1.9916   -0.3577   -0.0578 C.2       1 F42    0.0000
     11 O2          1.9592   -0.0442    1.1134 O.2       1 F42    0.0000
     12 N2          3.1481   -0.7707   -0.6131 N.am      1 F42    0.0000
     13 C9          4.3661   -0.8409    0.1979 C.3       1 F42    0.0000
     14 H1          1.2029    2.6852   -0.0910 H         1 F42    0.0000
     15 H2          0.5199    2.1022   -1.6278 H         1 F42    0.0000
     16 H3         -0.2672    3.4384   -0.7541 H         1 F42    0.0000
     17 H4         -0.7281   -1.6940    0.7903 H         1 F42    0.0000
     18 H5         -1.6561   -0.3533    1.5043 H         1 F42    0.0000
     19 H6         -2.0539   -1.4205   -1.3262 H         1 F42    0.0000
     20 H7         -3.6999   -1.8419    1.2095 H         1 F42    0.0000
     21 H8         -4.1449   -2.3991   -0.4214 H         1 F42    0.0000
     22 H9         -2.7162   -3.0803    0.3928 H         1 F42    0.0000
     23 H10        -3.6653    0.5193    0.3935 H         1 F42    0.0000
     24 H11        -2.6570    0.9631   -1.0046 H         1 F42    0.0000
     25 H12        -4.1103   -0.0379   -1.2374 H         1 F42    0.0000
     26 H13         0.5044   -1.2760   -1.2823 H         1 F42    0.0000
     27 H14         0.8937    0.4045   -1.7215 H         1 F42    0.0000
     28 H15         3.1740   -1.0215   -1.5498 H         1 F42    0.0000
     29 H16         5.1931   -1.1935   -0.4183 H         1 F42    0.0000
     30 H17         4.6003    0.1495    0.5882 H         1 F42    0.0000
     31 H18         4.2111   -1.5309    1.0273 H         1 F42    0.0000
@<TRIPOS>BOND
     1    1    2 1
     2    2    3 2
     3    2    4 am
     4    4    5 1
     5    5    6 1
     6    6    7 1
     7    6    8 1
     8    4    9 1
     9    9   10 1
    10   10   11 2
    11   10   12 am
    12   12   13 1
    13    1   14 1
    14    1   15 1
    15    1   16 1
    16    5   17 1
    17    5   18 1
    18    6   19 1
    19    7   20 1
    20    7   21 1
    21    7   22 1
    22    8   23 1
    23    8   24 1
    24    8   25 1
    25    9   26 1
    26    9   27 1
    27   12   28 1
    28   13   29 1
    29   13   30 1
    30   13   31 1
@<TRIPOS>SUBSTRUCTURE
     1 F42     1 RESIDUE           4 A     F42     0 ROOT
