@<TRIPOS>MOLECULE
smiles:CC(=O)N(c1c(C(=O)OC)cccc1)CC(=O)N(C)
35 35 1 0 0
SMALL
NO_CHARGES


@<TRIPOS>ATOM
      1 C1         -1.5199    1.8967    2.0510 C.3       1 F4F    0.0000
      2 C2         -0.5485    0.7825    1.7577 C.2       1 F4F    0.0000
      3 O1          0.1583    0.3459    2.6412 O.2       1 F4F    0.0000
      4 N1         -0.4652    0.2712    0.5134 N.am      1 F4F    0.0000
      5 C3          0.3683   -0.8156    0.2616 C.ar      1 F4F    0.0000
      6 C4          1.6750   -0.6086   -0.2072 C.ar      1 F4F    0.0000
      7 C5          2.1729    0.7597   -0.4351 C.2       1 F4F    0.0000
      8 O2          1.4849    1.7147   -0.1335 O.2       1 F4F    0.0000
      9 O3          3.3913    0.9516   -0.9780 O.3       1 F4F    0.0000
     10 C6          3.8819    2.2997   -1.2026 C.3       1 F4F    0.0000
     11 C7          2.5008   -1.7077   -0.4559 C.ar      1 F4F    0.0000
     12 C8          2.0292   -2.9846   -0.2403 C.ar      1 F4F    0.0000
     13 C9          0.7389   -3.1851    0.2224 C.ar      1 F4F    0.0000
     14 C10        -0.0871   -2.1088    0.4782 C.ar      1 F4F    0.0000
     15 C11        -1.2516    0.8588   -0.5741 C.3       1 F4F    0.0000
     16 C12        -2.6179    0.2238   -0.6059 C.2       1 F4F    0.0000
     17 O4         -2.9389   -0.5678    0.2550 O.2       1 F4F    0.0000
     18 N2         -3.4832    0.5358   -1.5910 N.am      1 F4F    0.0000
     19 C13        -4.8115   -0.0814   -1.6218 C.3       1 F4F    0.0000
     20 H1         -1.0207    2.8571    1.9227 H         1 F4F    0.0000
     21 H2         -2.3648    1.8320    1.3655 H         1 F4F    0.0000
     22 H3         -1.8767    1.8069    3.0770 H         1 F4F    0.0000
     23 H4          4.8770    2.2551   -1.6450 H         1 F4F    0.0000
     24 H5          3.2067    2.8241   -1.8788 H         1 F4F    0.0000
     25 H6          3.9302    2.8317   -0.2525 H         1 F4F    0.0000
     26 H7          3.5074   -1.5569   -0.8171 H         1 F4F    0.0000
     27 H8          2.6687   -3.8332   -0.4334 H         1 F4F    0.0000
     28 H9          0.3784   -4.1896    0.3884 H         1 F4F    0.0000
     29 H10        -1.0916   -2.2736    0.8392 H         1 F4F    0.0000
     30 H11        -1.3532    1.9316   -0.4105 H         1 F4F    0.0000
     31 H12        -0.7468    0.6823   -1.5239 H         1 F4F    0.0000
     32 H13        -3.2265    1.1690   -2.2795 H         1 F4F    0.0000
     33 H14        -5.3648    0.2901   -2.4843 H         1 F4F    0.0000
     34 H15        -4.7075   -1.1640   -1.6957 H         1 F4F    0.0000
     35 H16        -5.3505    0.1703   -0.7084 H         1 F4F    0.0000
@<TRIPOS>BOND
     1    1    2 1
     2    2    3 2
     3    2    4 am
     4    4    5 1
     5    5    6 ar
     6    6    7 1
     7    7    8 2
     8    7    9 1
     9    9   10 1
    10    6   11 ar
    11   11   12 ar
    12   12   13 ar
    13   13   14 ar
    14    5   14 ar
    15    4   15 1
    16   15   16 1
    17   16   17 2
    18   16   18 am
    19   18   19 1
    20    1   20 1
    21    1   21 1
    22    1   22 1
    23   10   23 1
    24   10   24 1
    25   10   25 1
    26   11   26 1
    27   12   27 1
    28   13   28 1
    29   14   29 1
    30   15   30 1
    31   15   31 1
    32   18   32 1
    33   19   33 1
    34   19   34 1
    35   19   35 1
@<TRIPOS>SUBSTRUCTURE
     1 F4F     1 RESIDUE           4 A     F4F     0 ROOT
