@<TRIPOS>MOLECULE
smiles:CC(=O)N[C@H](C)C(=O)N(C)
22 21 1 0 0
SMALL
NO_CHARGES


@<TRIPOS>ATOM
      1 C1          3.4217   -1.0586    0.1951 C.3       1 F5B    0.0000
      2 C2          2.2955   -0.1218   -0.1585 C.2       1 F5B    0.0000
      3 O1          2.5144    0.8622   -0.8329 O.2       1 F5B    0.0000
      4 N1          1.0451   -0.3775    0.2746 N.am      1 F5B    0.0000
      5 C3         -0.0497    0.5332   -0.0692 C.3       1 F5B    0.0000
      6 H1          0.1117    0.9339   -1.0699 H         1 F5B    0.0000
      7 C4         -0.0928    1.6827    0.9396 C.3       1 F5B    0.0000
      8 C5         -1.3567   -0.2162   -0.0330 C.2       1 F5B    0.0000
      9 O2         -1.3721   -1.3950    0.2520 O.2       1 F5B    0.0000
     10 N2         -2.5084    0.4235   -0.3172 N.am      1 F5B    0.0000
     11 C6         -3.7789   -0.3050   -0.2820 C.3       1 F5B    0.0000
     12 H2          4.3508   -0.6906   -0.2402 H         1 F5B    0.0000
     13 H3          3.5240   -1.1109    1.2791 H         1 F5B    0.0000
     14 H4          3.2049   -2.0520   -0.1977 H         1 F5B    0.0000
     15 H5          0.8701   -1.1645    0.8140 H         1 F5B    0.0000
     16 H6         -0.2542    1.2820    1.9404 H         1 F5B    0.0000
     17 H7          0.8525    2.2247    0.9134 H         1 F5B    0.0000
     18 H8         -0.9074    2.3603    0.6838 H         1 F5B    0.0000
     19 H9         -2.4961    1.3662   -0.5451 H         1 F5B    0.0000
     20 H10        -4.5935    0.3725   -0.5378 H         1 F5B    0.0000
     21 H11        -3.7482   -1.1240   -1.0007 H         1 F5B    0.0000
     22 H12        -3.9403   -0.7058    0.7188 H         1 F5B    0.0000
@<TRIPOS>BOND
     1    1    2 1
     2    2    3 2
     3    2    4 am
     4    4    5 1
     5    5    6 1
     6    5    7 1
     7    5    8 1
     8    8    9 2
     9    8   10 am
    10   10   11 1
    11    1   12 1
    12    1   13 1
    13    1   14 1
    14    4   15 1
    15    7   16 1
    16    7   17 1
    17    7   18 1
    18   10   19 1
    19   11   20 1
    20   11   21 1
    21   11   22 1
@<TRIPOS>SUBSTRUCTURE
     1 F5B     1 RESIDUE           4 A     F5B     0 ROOT
