@<TRIPOS>MOLECULE
smiles:CC(=O)N(c1c(I)cccc1)CC(=O)N(C)
29 29 1 0 0
SMALL
NO_CHARGES


@<TRIPOS>ATOM
      1 C1         -1.7312    1.7402    2.2550 C.3       1 F6D    0.0000
      2 C2         -0.9011    0.5371    1.8883 C.2       1 F6D    0.0000
      3 O1         -0.2598   -0.0399    2.7410 O.2       1 F6D    0.0000
      4 N1         -0.8712    0.1022    0.6130 N.am      1 F6D    0.0000
      5 C3         -0.1742   -1.0671    0.2886 C.ar      1 F6D    0.0000
      6 C4          1.1331   -0.9921   -0.1761 C.ar      1 F6D    0.0000
      7 I1          2.0641    0.8722   -0.3921 I         1 F6D    0.0000
      8 C5          1.8184   -2.1484   -0.4950 C.ar      1 F6D    0.0000
      9 C6          1.2043   -3.3793   -0.3525 C.ar      1 F6D    0.0000
     10 C7         -0.0964   -3.4570    0.1096 C.ar      1 F6D    0.0000
     11 C8         -0.7854   -2.3049    0.4357 C.ar      1 F6D    0.0000
     12 C9         -1.5685    0.8536   -0.4336 C.3       1 F6D    0.0000
     13 C10        -2.9910    0.3672   -0.5382 C.2       1 F6D    0.0000
     14 O2         -3.4108   -0.4534    0.2499 O.2       1 F6D    0.0000
     15 N2         -3.7967    0.8442   -1.5077 N.am      1 F6D    0.0000
     16 C11        -5.1795    0.3714   -1.6094 C.3       1 F6D    0.0000
     17 H1         -1.1585    2.6481    2.0659 H         1 F6D    0.0000
     18 H2         -2.6398    1.7518    1.6530 H         1 F6D    0.0000
     19 H3         -1.9958    1.6909    3.3112 H         1 F6D    0.0000
     20 H4          2.8346   -2.0910   -0.8562 H         1 F6D    0.0000
     21 H5          1.7419   -4.2819   -0.6031 H         1 F6D    0.0000
     22 H6         -0.5731   -4.4199    0.2197 H         1 F6D    0.0000
     23 H7         -1.8013   -2.3665    0.7969 H         1 F6D    0.0000
     24 H8         -1.5647    1.9144   -0.1831 H         1 F6D    0.0000
     25 H9         -1.0622    0.7037   -1.3872 H         1 F6D    0.0000
     26 H10        -3.4609    1.5005   -2.1381 H         1 F6D    0.0000
     27 H11        -5.6718    0.8655   -2.4471 H         1 F6D    0.0000
     28 H12        -5.1840   -0.7067   -1.7700 H         1 F6D    0.0000
     29 H13        -5.7117    0.6035   -0.6869 H         1 F6D    0.0000
@<TRIPOS>BOND
     1    1    2 1
     2    2    3 2
     3    2    4 am
     4    4    5 1
     5    5    6 ar
     6    6    7 1
     7    6    8 ar
     8    8    9 ar
     9    9   10 ar
    10   10   11 ar
    11    5   11 ar
    12    4   12 1
    13   12   13 1
    14   13   14 2
    15   13   15 am
    16   15   16 1
    17    1   17 1
    18    1   18 1
    19    1   19 1
    20    8   20 1
    21    9   21 1
    22   10   22 1
    23   11   23 1
    24   12   24 1
    25   12   25 1
    26   15   26 1
    27   16   27 1
    28   16   28 1
    29   16   29 1
@<TRIPOS>SUBSTRUCTURE
     1 F6D     1 RESIDUE           4 A     F6D     0 ROOT
