@<TRIPOS>MOLECULE
smiles:CC(=O)N([C@H](C)CC)CC(=O)N(C)
31 30 1 0 0
SMALL
NO_CHARGES


@<TRIPOS>ATOM
      1 C1          0.2151    2.4621   -0.7768 C.3       1 F7F    0.0000
      2 C2          1.0052    1.3552   -0.1276 C.2       1 F7F    0.0000
      3 O1          2.0385    1.6086    0.4546 O.2       1 F7F    0.0000
      4 N1          0.5636    0.0835   -0.1941 N.am      1 F7F    0.0000
      5 C3          1.2651   -0.9746    0.5370 C.3       1 F7F    0.0000
      6 H1          0.7356   -1.9184    0.4071 H         1 F7F    0.0000
      7 C4          1.3164   -0.6191    2.0242 C.3       1 F7F    0.0000
      8 C5          2.6897   -1.1104   -0.0043 C.3       1 F7F    0.0000
      9 C6          2.6402   -1.5990   -1.4534 C.3       1 F7F    0.0000
     10 C7         -0.6178   -0.2406   -0.9975 C.3       1 F7F    0.0000
     11 C8         -1.8476   -0.1825   -0.1284 C.2       1 F7F    0.0000
     12 O2         -1.7600    0.1910    1.0221 O.2       1 F7F    0.0000
     13 N2         -3.0448   -0.5457   -0.6297 N.am      1 F7F    0.0000
     14 C9         -4.2403   -0.4892    0.2151 C.3       1 F7F    0.0000
     15 H2          0.5854    2.6279   -1.7884 H         1 F7F    0.0000
     16 H3         -0.8376    2.1820   -0.8166 H         1 F7F    0.0000
     17 H4          0.3258    3.3771   -0.1948 H         1 F7F    0.0000
     18 H5          1.8459    0.3247    2.1542 H         1 F7F    0.0000
     19 H6          0.3015   -0.5224    2.4099 H         1 F7F    0.0000
     20 H7          1.8383   -1.4064    2.5682 H         1 F7F    0.0000
     21 H8          3.1874   -0.1415    0.0356 H         1 F7F    0.0000
     22 H9          3.2421   -1.8279    0.6024 H         1 F7F    0.0000
     23 H10         3.6538   -1.7831   -1.8095 H         1 F7F    0.0000
     24 H11         2.0634   -2.5224   -1.5059 H         1 F7F    0.0000
     25 H12         2.1682   -0.8398   -2.0769 H         1 F7F    0.0000
     26 H13        -0.7130    0.4793   -1.8104 H         1 F7F    0.0000
     27 H14        -0.5121   -1.2436   -1.4109 H         1 F7F    0.0000
     28 H15        -3.1148   -0.8444   -1.5499 H         1 F7F    0.0000
     29 H16        -5.1067   -0.8178   -0.3589 H         1 F7F    0.0000
     30 H17        -4.1069   -1.1423    1.0776 H         1 F7F    0.0000
     31 H18        -4.3968    0.5344    0.5553 H         1 F7F    0.0000
@<TRIPOS>BOND
     1    1    2 1
     2    2    3 2
     3    2    4 am
     4    4    5 1
     5    5    6 1
     6    5    7 1
     7    5    8 1
     8    8    9 1
     9    4   10 1
    10   10   11 1
    11   11   12 2
    12   11   13 am
    13   13   14 1
    14    1   15 1
    15    1   16 1
    16    1   17 1
    17    7   18 1
    18    7   19 1
    19    7   20 1
    20    8   21 1
    21    8   22 1
    22    9   23 1
    23    9   24 1
    24    9   25 1
    25   10   26 1
    26   10   27 1
    27   13   28 1
    28   14   29 1
    29   14   30 1
    30   14   31 1
@<TRIPOS>SUBSTRUCTURE
     1 F7F     1 RESIDUE           4 A     F7F     0 ROOT
