@<TRIPOS>MOLECULE
smiles:CC(=O)N(c1cccc2ccccc21)CC(=O)N(C)
35 36 1 0 0
SMALL
NO_CHARGES


@<TRIPOS>ATOM
      1 C1          2.0971    2.6620   -0.6711 C.3       1 F88    0.0000
      2 C2          0.8958    1.7914   -0.9359 C.2       1 F88    0.0000
      3 O1          0.1381    2.0632   -1.8431 O.2       1 F88    0.0000
      4 N1          0.6635    0.7108   -0.1647 N.am      1 F88    0.0000
      5 C3         -0.3954   -0.1476   -0.4665 C.ar      1 F88    0.0000
      6 C4         -0.2337   -1.1504   -1.3980 C.ar      1 F88    0.0000
      7 C5         -1.2827   -2.0114   -1.7061 C.ar      1 F88    0.0000
      8 C6         -2.4948   -1.8884   -1.0979 C.ar      1 F88    0.0000
      9 C7         -2.7009   -0.8793   -0.1421 C.ar      1 F88    0.0000
     10 C8         -3.9415   -0.7284    0.5017 C.ar      1 F88    0.0000
     11 C9         -4.1065    0.2600    1.4227 C.ar      1 F88    0.0000
     12 C10        -3.0628    1.1277    1.7385 C.ar      1 F88    0.0000
     13 C11        -1.8480    1.0111    1.1348 C.ar      1 F88    0.0000
     14 C12        -1.6390    0.0002    0.1836 C.ar      1 F88    0.0000
     15 C13         1.5221    0.4369    0.9903 C.3       1 F88    0.0000
     16 C14         2.6914   -0.4094    0.5575 C.2       1 F88    0.0000
     17 O2          2.8466   -0.6748   -0.6157 O.2       1 F88    0.0000
     18 N2          3.5648   -0.8714    1.4742 N.am      1 F88    0.0000
     19 C15         4.7015   -1.6942    1.0534 C.3       1 F88    0.0000
     20 H1          1.8538    3.3917    0.1012 H         1 F88    0.0000
     21 H2          2.9284    2.0418   -0.3359 H         1 F88    0.0000
     22 H3          2.3779    3.1821   -1.5869 H         1 F88    0.0000
     23 H4          0.7179   -1.2693   -1.8947 H         1 F88    0.0000
     24 H5         -1.1331   -2.7896   -2.4398 H         1 F88    0.0000
     25 H6         -3.2972   -2.5658   -1.3503 H         1 F88    0.0000
     26 H7         -4.7595   -1.3932    0.2665 H         1 F88    0.0000
     27 H8         -5.0606    0.3737    1.9159 H         1 F88    0.0000
     28 H9         -3.2200    1.9042    2.4724 H         1 F88    0.0000
     29 H10        -1.0481    1.6906    1.3892 H         1 F88    0.0000
     30 H11         1.8872    1.3775    1.4027 H         1 F88    0.0000
     31 H12         0.9499   -0.0952    1.7503 H         1 F88    0.0000
     32 H13         3.4406   -0.6592    2.4125 H         1 F88    0.0000
     33 H14         5.2920   -1.9718    1.9266 H         1 F88    0.0000
     34 H15         4.3355   -2.5951    0.5610 H         1 F88    0.0000
     35 H16         5.3229   -1.1279    0.3597 H         1 F88    0.0000
@<TRIPOS>BOND
     1    1    2 1
     2    2    3 2
     3    2    4 am
     4    4    5 1
     5    5    6 ar
     6    6    7 ar
     7    7    8 ar
     8    8    9 ar
     9    9   10 ar
    10   10   11 ar
    11   11   12 ar
    12   12   13 ar
    13   13   14 ar
    14    9   14 ar
    15    5   14 ar
    16    4   15 1
    17   15   16 1
    18   16   17 2
    19   16   18 am
    20   18   19 1
    21    1   20 1
    22    1   21 1
    23    1   22 1
    24    6   23 1
    25    7   24 1
    26    8   25 1
    27   10   26 1
    28   11   27 1
    29   12   28 1
    30   13   29 1
    31   15   30 1
    32   15   31 1
    33   18   32 1
    34   19   33 1
    35   19   34 1
    36   19   35 1
@<TRIPOS>SUBSTRUCTURE
     1 F88     1 RESIDUE           4 A     F88     0 ROOT
