@<TRIPOS>MOLECULE
smiles:CC(=O)N(CCOC)CC(=O)N(C)
29 28 1 0 0
SMALL
NO_CHARGES


@<TRIPOS>ATOM
      1 C1          0.4423    2.2282   -1.4263 C.3       1 F9B    0.0000
      2 C2         -0.3514    1.7859   -0.2240 C.2       1 F9B    0.0000
      3 O1         -0.9783    2.5991    0.4214 O.2       1 F9B    0.0000
      4 N1         -0.3645    0.4866    0.1340 N.am      1 F9B    0.0000
      5 C3         -1.2282    0.0371    1.2287 C.3       1 F9B    0.0000
      6 C4         -2.5929   -0.3681    0.6681 C.3       1 F9B    0.0000
      7 O2         -2.4394   -1.5052   -0.1837 O.3       1 F9B    0.0000
      8 C5         -3.7412   -1.8333   -0.6732 C.3       1 F9B    0.0000
      9 C6          0.4849   -0.4762   -0.5715 C.3       1 F9B    0.0000
     10 C7          1.8644   -0.4681    0.0352 C.2       1 F9B    0.0000
     11 O3          2.1134    0.2693    0.9653 O.2       1 F9B    0.0000
     12 N2          2.8213   -1.2803   -0.4558 N.am      1 F9B    0.0000
     13 C8          4.1623   -1.2725    0.1340 C.3       1 F9B    0.0000
     14 H1          1.4738    2.4193   -1.1305 H         1 F9B    0.0000
     15 H2          0.4208    1.4449   -2.1840 H         1 F9B    0.0000
     16 H3          0.0063    3.1402   -1.8340 H         1 F9B    0.0000
     17 H4         -0.7704   -0.8188    1.7247 H         1 F9B    0.0000
     18 H5         -1.3563    0.8473    1.9465 H         1 F9B    0.0000
     19 H6         -3.2637   -0.6178    1.4901 H         1 F9B    0.0000
     20 H7         -3.0113    0.4602    0.0964 H         1 F9B    0.0000
     21 H8         -3.6743   -2.6997   -1.3312 H         1 F9B    0.0000
     22 H9         -4.3974   -2.0643    0.1660 H         1 F9B    0.0000
     23 H10        -4.1450   -0.9862   -1.2277 H         1 F9B    0.0000
     24 H11         0.0547   -1.4738   -0.4825 H         1 F9B    0.0000
     25 H12         0.5493   -0.2009   -1.6241 H         1 F9B    0.0000
     26 H13         2.6221   -1.8701   -1.1997 H         1 F9B    0.0000
     27 H14         4.7943   -1.9888   -0.3909 H         1 F9B    0.0000
     28 H15         4.5925   -0.2749    0.0451 H         1 F9B    0.0000
     29 H16         4.0979   -1.5478    1.1867 H         1 F9B    0.0000
@<TRIPOS>BOND
     1    1    2 1
     2    2    3 2
     3    2    4 am
     4    4    5 1
     5    5    6 1
     6    6    7 1
     7    7    8 1
     8    4    9 1
     9    9   10 1
    10   10   11 2
    11   10   12 am
    12   12   13 1
    13    1   14 1
    14    1   15 1
    15    1   16 1
    16    5   17 1
    17    5   18 1
    18    6   19 1
    19    6   20 1
    20    8   21 1
    21    8   22 1
    22    8   23 1
    23    9   24 1
    24    9   25 1
    25   12   26 1
    26   13   27 1
    27   13   28 1
    28   13   29 1
@<TRIPOS>SUBSTRUCTURE
     1 F9B     1 RESIDUE           4 A     F9B     0 ROOT
