@<TRIPOS>MOLECULE
smiles:CC(=O)N(CCN)CC(=O)N(C)
27 26 1 0 0
SMALL
NO_CHARGES


@<TRIPOS>ATOM
      1 C1          0.1158    2.5151   -0.7242 C.3       1 FBD    0.0000
      2 C2         -0.7821    1.5558    0.0137 C.2       1 FBD    0.0000
      3 O1         -1.6557    1.9798    0.7404 O.2       1 FBD    0.0000
      4 N1         -0.6143    0.2267   -0.1338 N.am      1 FBD    0.0000
      5 C3         -1.5592   -0.7044    0.4880 C.3       1 FBD    0.0000
      6 C4         -2.7011   -0.9989   -0.4867 C.3       1 FBD    0.0000
      7 N2         -3.6486   -1.9325    0.1368 N.4       1 FBD    0.0000
      8 C5          0.5129   -0.2870   -0.9159 C.3       1 FBD    0.0000
      9 C6          1.7340   -0.3776   -0.0374 C.2       1 FBD    0.0000
     10 O2          1.6691   -0.0458    1.1273 O.2       1 FBD    0.0000
     11 N3          2.8982   -0.8274   -0.5461 N.am      1 FBD    0.0000
     12 C7          4.0853   -0.9155    0.3079 C.3       1 FBD    0.0000
     13 H1          1.0231    2.6829   -0.1441 H         1 FBD    0.0000
     14 H2          0.3778    2.0939   -1.6949 H         1 FBD    0.0000
     15 H3         -0.4042    3.4623   -0.8676 H         1 FBD    0.0000
     16 H4         -1.0446   -1.6327    0.7360 H         1 FBD    0.0000
     17 H5         -1.9632   -0.2590    1.3971 H         1 FBD    0.0000
     18 H6         -3.2157   -0.0706   -0.7346 H         1 FBD    0.0000
     19 H7         -2.2971   -1.4444   -1.3958 H         1 FBD    0.0000
     20 H8         -4.3803   -2.0970   -0.5382 H         1 FBD    0.0000
     21 H9         -3.1595   -2.8074    0.2532 H         1 FBD    0.0000
     22 H10         0.2674   -1.2771   -1.3001 H         1 FBD    0.0000
     23 H11         0.7139    0.3864   -1.7491 H         1 FBD    0.0000
     24 H12         2.9501   -1.0928   -1.4777 H         1 FBD    0.0000
     25 H13         4.9240   -1.2977   -0.2741 H         1 FBD    0.0000
     26 H14         4.3308    0.0745    0.6920 H         1 FBD    0.0000
     27 H15         3.8843   -1.5890    1.1410 H         1 FBD    0.0000
@<TRIPOS>BOND
     1    1    2 1
     2    2    3 2
     3    2    4 am
     4    4    5 1
     5    5    6 1
     6    6    7 1
     7    4    8 1
     8    8    9 1
     9    9   10 2
    10    9   11 am
    11   11   12 1
    12    1   13 1
    13    1   14 1
    14    1   15 1
    15    5   16 1
    16    5   17 1
    17    6   18 1
    18    6   19 1
    19    7   20 1
    20    7   21 1
    21    8   22 1
    22    8   23 1
    23   11   24 1
    24   12   25 1
    25   12   26 1
    26   12   27 1
@<TRIPOS>SUBSTRUCTURE
     1 FBD     1 RESIDUE           4 A     FBD     0 ROOT
